/*---------------------------------------------------------------------------*\
  =========                 |
  \\      /  F ield         | OpenFOAM: The Open Source CFD Toolbox
   \\    /   O peration     | Website:  https://openfoam.org
    \\  /    A nd           | Version:  6
     \\/     M anipulation  |
\*---------------------------------------------------------------------------*/
Build  : 6-fa1285188035
Exec   : PSS_DNP
Date   : Mar 03 2021
Time   : 12:20:32
Host   : "asnalb-X540LA"
PID    : 1605
I/O    : uncollated
Case   : /home/asnalb/OpenFOAM/asnalb-6/Step1.1
nProcs : 1
sigFpe : Enabling floating point exception trapping (FOAM_SIGFPE).
fileModificationChecking : Monitoring run-time modified files using timeStampMaster (fileModificationSkew 10)
allowSystemOperations : Allowing user-supplied system call operations

// * * * * * * * * * * * * * * * * * * * * * * * * * * * * * * * * * * * * * //
Create time

Create mesh for time = 0


PIMPLE: No convergence criteria found


PIMPLE: Operating solver in PISO mode

Reading thermophysical properties

Reading field T

Reading field p_rgh

Reading field U

Reading/calculating face flux field phi

Selecting incompressible transport model Newtonian
Creating turbulence model

Selecting turbulence model type laminar
Selecting laminar stress model Stokes
Reading field alphat


Reading g

Reading hRef
Calculating field g.h

Reading transportProperties

Reading diffusivity D

Reading diffusivity D1

Reading diffusivity D1

Reading diffusivity D1

Reading diffusivity D1

Reading diffusivity D1

Reading diffusivity D1

Reading diffusivity D1

Reading fraction beta1

Reading decay constant lambda1

Reading fraction beta2

Reading decay constant lambda2

Reading fraction beta3

Reading decay constant lambda3

Reading fraction beta4

Reading decay constant lambda4

Reading fraction beta5

Reading decay constant lambda5

Reading fraction beta6

Reading decay constant lambda6

Reading fraction beta7

Reading decay constant lambda7

Reading fraction beta8

Reading decay constant lambda8

Reading field dnp1

Reading field dnp1_s

Reading field dnp2_s

Reading field dnp3_s

Reading field dnp4_s

Reading field dnp5_s

Reading field dnp6_s

Reading field dnp7_s

Reading field dnp8_s

Reading field dnp2

Reading field dnp3

Reading field dnp4

Reading field dnp5

Reading field dnp6

Reading field dnp7

Reading field dnp8

No MRF models present

Radiation model not active: radiationProperties not found
Selecting radiationModel none
No finite volume options present
Courant Number mean: 4.09553 max: 18.9387

Starting time loop

Courant Number mean: 4.09553 max: 18.9387
Time = 1

DILUPBiCGStab:  Solving for dnp1, Initial residual = 0.12248, Final residual = 3.68788e-09, No Iterations 9
DILUPBiCGStab:  Solving for dnp2, Initial residual = 0.0875022, Final residual = 1.96228e-09, No Iterations 15
DILUPBiCGStab:  Solving for dnp3, Initial residual = 0.0892841, Final residual = 1.73747e-09, No Iterations 15
DILUPBiCGStab:  Solving for dnp4, Initial residual = 0.115956, Final residual = 3.95929e-09, No Iterations 14
DILUPBiCGStab:  Solving for dnp5, Initial residual = 0.194704, Final residual = 5.25153e-09, No Iterations 8
DILUPBiCGStab:  Solving for dnp6, Initial residual = 0.310403, Final residual = 9.4077e-09, No Iterations 10
DILUPBiCGStab:  Solving for dnp7, Initial residual = 0.458662, Final residual = 6.43355e-09, No Iterations 7
DILUPBiCGStab:  Solving for dnp8, Initial residual = 0.522992, Final residual = 6.59057e-09, No Iterations 5
DILUPBiCGStab:  Solving for T, Initial residual = 1, Final residual = 2.8009e-07, No Iterations 4
ExecutionTime = 0.37 s  ClockTime = 1 s

Courant Number mean: 4.09553 max: 18.9387
Time = 2

DILUPBiCGStab:  Solving for dnp1, Initial residual = 0.0776373, Final residual = 7.83582e-09, No Iterations 9
DILUPBiCGStab:  Solving for dnp2, Initial residual = 0.0700644, Final residual = 1.56416e-09, No Iterations 15
DILUPBiCGStab:  Solving for dnp3, Initial residual = 0.0728356, Final residual = 8.55687e-09, No Iterations 14
DILUPBiCGStab:  Solving for dnp4, Initial residual = 0.102613, Final residual = 3.59575e-09, No Iterations 14
DILUPBiCGStab:  Solving for dnp5, Initial residual = 0.17182, Final residual = 4.41744e-09, No Iterations 8
DILUPBiCGStab:  Solving for dnp6, Initial residual = 0.27947, Final residual = 5.60087e-09, No Iterations 10
DILUPBiCGStab:  Solving for dnp7, Initial residual = 0.378492, Final residual = 4.80186e-09, No Iterations 7
DILUPBiCGStab:  Solving for dnp8, Initial residual = 0.384293, Final residual = 4.93642e-09, No Iterations 5
DILUPBiCGStab:  Solving for T, Initial residual = 0.137598, Final residual = 1.03189e-07, No Iterations 4
ExecutionTime = 0.63 s  ClockTime = 1 s

Courant Number mean: 4.09553 max: 18.9387
Time = 3

DILUPBiCGStab:  Solving for dnp1, Initial residual = 0.0674468, Final residual = 3.9133e-09, No Iterations 9
DILUPBiCGStab:  Solving for dnp2, Initial residual = 0.0668713, Final residual = 8.0366e-09, No Iterations 13
DILUPBiCGStab:  Solving for dnp3, Initial residual = 0.069712, Final residual = 6.24164e-09, No Iterations 13
DILUPBiCGStab:  Solving for dnp4, Initial residual = 0.0986332, Final residual = 8.12702e-09, No Iterations 13
DILUPBiCGStab:  Solving for dnp5, Initial residual = 0.158935, Final residual = 9.66413e-09, No Iterations 8
DILUPBiCGStab:  Solving for dnp6, Initial residual = 0.240182, Final residual = 9.17088e-09, No Iterations 10
DILUPBiCGStab:  Solving for dnp7, Initial residual = 0.242287, Final residual = 2.71196e-09, No Iterations 7
DILUPBiCGStab:  Solving for dnp8, Initial residual = 0.138512, Final residual = 4.76329e-09, No Iterations 4
DILUPBiCGStab:  Solving for T, Initial residual = 0.0736368, Final residual = 4.7812e-07, No Iterations 3
ExecutionTime = 0.8 s  ClockTime = 1 s

Courant Number mean: 4.09553 max: 18.9387
Time = 4

DILUPBiCGStab:  Solving for dnp1, Initial residual = 0.0640594, Final residual = 8.94552e-10, No Iterations 10
DILUPBiCGStab:  Solving for dnp2, Initial residual = 0.0654946, Final residual = 6.97459e-09, No Iterations 13
DILUPBiCGStab:  Solving for dnp3, Initial residual = 0.0682419, Final residual = 5.92856e-09, No Iterations 13
DILUPBiCGStab:  Solving for dnp4, Initial residual = 0.0955482, Final residual = 8.919e-09, No Iterations 12
DILUPBiCGStab:  Solving for dnp5, Initial residual = 0.147482, Final residual = 3.86516e-09, No Iterations 8
DILUPBiCGStab:  Solving for dnp6, Initial residual = 0.19358, Final residual = 6.51234e-09, No Iterations 10
DILUPBiCGStab:  Solving for dnp7, Initial residual = 0.119852, Final residual = 6.82733e-09, No Iterations 7
DILUPBiCGStab:  Solving for dnp8, Initial residual = 0.0342568, Final residual = 7.67212e-09, No Iterations 4
DILUPBiCGStab:  Solving for T, Initial residual = 0.0493495, Final residual = 4.1536e-07, No Iterations 3
ExecutionTime = 1.03 s  ClockTime = 1 s

Courant Number mean: 4.09553 max: 18.9387
Time = 5

DILUPBiCGStab:  Solving for dnp1, Initial residual = 0.0625251, Final residual = 9.8454e-09, No Iterations 9
DILUPBiCGStab:  Solving for dnp2, Initial residual = 0.0644206, Final residual = 7.79178e-09, No Iterations 15
DILUPBiCGStab:  Solving for dnp3, Initial residual = 0.0671449, Final residual = 7.18135e-09, No Iterations 13
DILUPBiCGStab:  Solving for dnp4, Initial residual = 0.0927769, Final residual = 5.43456e-09, No Iterations 12
DILUPBiCGStab:  Solving for dnp5, Initial residual = 0.135955, Final residual = 5.17652e-09, No Iterations 8
DILUPBiCGStab:  Solving for dnp6, Initial residual = 0.145553, Final residual = 4.50598e-09, No Iterations 10
DILUPBiCGStab:  Solving for dnp7, Initial residual = 0.0508516, Final residual = 7.06834e-09, No Iterations 6
DILUPBiCGStab:  Solving for dnp8, Initial residual = 0.0077112, Final residual = 1.66273e-09, No Iterations 4
DILUPBiCGStab:  Solving for T, Initial residual = 0.0384372, Final residual = 6.21994e-07, No Iterations 3
ExecutionTime = 1.24 s  ClockTime = 1 s

Courant Number mean: 4.09553 max: 18.9387
Time = 6

DILUPBiCGStab:  Solving for dnp1, Initial residual = 0.0614376, Final residual = 5.31484e-09, No Iterations 9
DILUPBiCGStab:  Solving for dnp2, Initial residual = 0.0634022, Final residual = 6.7855e-09, No Iterations 14
DILUPBiCGStab:  Solving for dnp3, Initial residual = 0.0660816, Final residual = 4.63502e-09, No Iterations 14
DILUPBiCGStab:  Solving for dnp4, Initial residual = 0.090178, Final residual = 8.47135e-09, No Iterations 11
DILUPBiCGStab:  Solving for dnp5, Initial residual = 0.123921, Final residual = 4.71186e-09, No Iterations 8
DILUPBiCGStab:  Solving for dnp6, Initial residual = 0.102516, Final residual = 3.43116e-09, No Iterations 10
DILUPBiCGStab:  Solving for dnp7, Initial residual = 0.0201471, Final residual = 8.21196e-09, No Iterations 6
DILUPBiCGStab:  Solving for dnp8, Initial residual = 0.00169439, Final residual = 2.87779e-09, No Iterations 3
DILUPBiCGStab:  Solving for T, Initial residual = 0.0328207, Final residual = 8.44518e-07, No Iterations 3
ExecutionTime = 1.44 s  ClockTime = 2 s

Courant Number mean: 4.09553 max: 18.9387
Time = 7

DILUPBiCGStab:  Solving for dnp1, Initial residual = 0.0603707, Final residual = 4.22509e-09, No Iterations 9
DILUPBiCGStab:  Solving for dnp2, Initial residual = 0.0623481, Final residual = 8.72757e-09, No Iterations 14
DILUPBiCGStab:  Solving for dnp3, Initial residual = 0.0649877, Final residual = 5.94504e-09, No Iterations 14
DILUPBiCGStab:  Solving for dnp4, Initial residual = 0.0876356, Final residual = 4.71519e-09, No Iterations 13
DILUPBiCGStab:  Solving for dnp5, Initial residual = 0.111354, Final residual = 9.01117e-09, No Iterations 8
DILUPBiCGStab:  Solving for dnp6, Initial residual = 0.068415, Final residual = 2.56652e-09, No Iterations 10
DILUPBiCGStab:  Solving for dnp7, Initial residual = 0.00776375, Final residual = 2.67011e-09, No Iterations 6
DILUPBiCGStab:  Solving for dnp8, Initial residual = 0.000367903, Final residual = 4.6463e-09, No Iterations 3
DILUPBiCGStab:  Solving for T, Initial residual = 0.0289686, Final residual = 4.75749e-07, No Iterations 4
ExecutionTime = 1.66 s  ClockTime = 2 s

Courant Number mean: 4.09553 max: 18.9387
Time = 8

DILUPBiCGStab:  Solving for dnp1, Initial residual = 0.0592903, Final residual = 4.22552e-09, No Iterations 9
DILUPBiCGStab:  Solving for dnp2, Initial residual = 0.0612677, Final residual = 6.1884e-09, No Iterations 14
DILUPBiCGStab:  Solving for dnp3, Initial residual = 0.0638915, Final residual = 9.02172e-09, No Iterations 14
DILUPBiCGStab:  Solving for dnp4, Initial residual = 0.0850627, Final residual = 7.01296e-09, No Iterations 13
DILUPBiCGStab:  Solving for dnp5, Initial residual = 0.0985331, Final residual = 4.16588e-09, No Iterations 8
DILUPBiCGStab:  Solving for dnp6, Initial residual = 0.0438901, Final residual = 1.77932e-09, No Iterations 10
DILUPBiCGStab:  Solving for dnp7, Initial residual = 0.00295584, Final residual = 3.90227e-09, No Iterations 5
DILUPBiCGStab:  Solving for dnp8, Initial residual = 8.30731e-05, Final residual = 9.0356e-09, No Iterations 2
DILUPBiCGStab:  Solving for T, Initial residual = 0.0261071, Final residual = 5.99987e-07, No Iterations 4
ExecutionTime = 1.85 s  ClockTime = 2 s

Courant Number mean: 4.09553 max: 18.9387
Time = 9

DILUPBiCGStab:  Solving for dnp1, Initial residual = 0.0581658, Final residual = 5.55048e-09, No Iterations 9
DILUPBiCGStab:  Solving for dnp2, Initial residual = 0.0601637, Final residual = 9.13308e-09, No Iterations 15
DILUPBiCGStab:  Solving for dnp3, Initial residual = 0.062792, Final residual = 4.14767e-09, No Iterations 15
DILUPBiCGStab:  Solving for dnp4, Initial residual = 0.0824131, Final residual = 9.75355e-09, No Iterations 13
DILUPBiCGStab:  Solving for dnp5, Initial residual = 0.0857504, Final residual = 8.21182e-09, No Iterations 8
DILUPBiCGStab:  Solving for dnp6, Initial residual = 0.0274188, Final residual = 1.18241e-09, No Iterations 10
DILUPBiCGStab:  Solving for dnp7, Initial residual = 0.00111562, Final residual = 1.5394e-09, No Iterations 5
DILUPBiCGStab:  Solving for dnp8, Initial residual = 2.69738e-05, Final residual = 3.97162e-09, No Iterations 2
DILUPBiCGStab:  Solving for T, Initial residual = 0.0238345, Final residual = 8.13066e-07, No Iterations 4
ExecutionTime = 2.06 s  ClockTime = 2 s

Courant Number mean: 4.09553 max: 18.9387
Time = 10

DILUPBiCGStab:  Solving for dnp1, Initial residual = 0.0569837, Final residual = 4.16637e-09, No Iterations 9
DILUPBiCGStab:  Solving for dnp2, Initial residual = 0.0590611, Final residual = 6.08628e-09, No Iterations 16
DILUPBiCGStab:  Solving for dnp3, Initial residual = 0.0616687, Final residual = 6.59178e-09, No Iterations 15
DILUPBiCGStab:  Solving for dnp4, Initial residual = 0.0797308, Final residual = 1.6257e-09, No Iterations 15
DILUPBiCGStab:  Solving for dnp5, Initial residual = 0.0733019, Final residual = 9.58425e-09, No Iterations 7
DILUPBiCGStab:  Solving for dnp6, Initial residual = 0.0168407, Final residual = 7.89584e-10, No Iterations 10
DILUPBiCGStab:  Solving for dnp7, Initial residual = 0.000416722, Final residual = 3.67332e-09, No Iterations 5
DILUPBiCGStab:  Solving for dnp8, Initial residual = 1.87286e-05, Final residual = 1.66769e-09, No Iterations 2
DILUPBiCGStab:  Solving for T, Initial residual = 0.0219654, Final residual = 4.66615e-07, No Iterations 4
ExecutionTime = 2.26 s  ClockTime = 3 s

Courant Number mean: 4.09553 max: 18.9387
Time = 11

DILUPBiCGStab:  Solving for dnp1, Initial residual = 0.0558085, Final residual = 7.07844e-09, No Iterations 8
DILUPBiCGStab:  Solving for dnp2, Initial residual = 0.0579638, Final residual = 8.03016e-09, No Iterations 15
DILUPBiCGStab:  Solving for dnp3, Initial residual = 0.0605724, Final residual = 5.90603e-09, No Iterations 15
DILUPBiCGStab:  Solving for dnp4, Initial residual = 0.0769583, Final residual = 2.91911e-09, No Iterations 15
DILUPBiCGStab:  Solving for dnp5, Initial residual = 0.0615523, Final residual = 5.16004e-09, No Iterations 7
DILUPBiCGStab:  Solving for dnp6, Initial residual = 0.0102352, Final residual = 5.44455e-10, No Iterations 10
DILUPBiCGStab:  Solving for dnp7, Initial residual = 0.000155854, Final residual = 1.25245e-09, No Iterations 5
DILUPBiCGStab:  Solving for dnp8, Initial residual = 1.90862e-05, Final residual = 1.41839e-09, No Iterations 2
DILUPBiCGStab:  Solving for T, Initial residual = 0.0204393, Final residual = 5.6596e-07, No Iterations 4
ExecutionTime = 2.46 s  ClockTime = 3 s

Courant Number mean: 4.09553 max: 18.9387
Time = 12

DILUPBiCGStab:  Solving for dnp1, Initial residual = 0.054664, Final residual = 5.52818e-09, No Iterations 8
DILUPBiCGStab:  Solving for dnp2, Initial residual = 0.0569175, Final residual = 5.75283e-09, No Iterations 15
DILUPBiCGStab:  Solving for dnp3, Initial residual = 0.059517, Final residual = 4.16577e-09, No Iterations 15
DILUPBiCGStab:  Solving for dnp4, Initial residual = 0.0740452, Final residual = 8.80659e-09, No Iterations 14
DILUPBiCGStab:  Solving for dnp5, Initial residual = 0.0508382, Final residual = 3.60953e-09, No Iterations 7
DILUPBiCGStab:  Solving for dnp6, Initial residual = 0.00617985, Final residual = 9.91629e-09, No Iterations 8
DILUPBiCGStab:  Solving for dnp7, Initial residual = 6.22895e-05, Final residual = 4.09375e-09, No Iterations 4
DILUPBiCGStab:  Solving for dnp8, Initial residual = 2.00635e-05, Final residual = 1.51672e-09, No Iterations 2
DILUPBiCGStab:  Solving for T, Initial residual = 0.0191814, Final residual = 6.11688e-07, No Iterations 4
ExecutionTime = 2.64 s  ClockTime = 3 s

Courant Number mean: 4.09553 max: 18.9387
Time = 13

DILUPBiCGStab:  Solving for dnp1, Initial residual = 0.0535866, Final residual = 5.27134e-09, No Iterations 8
DILUPBiCGStab:  Solving for dnp2, Initial residual = 0.0558748, Final residual = 3.73751e-09, No Iterations 15
DILUPBiCGStab:  Solving for dnp3, Initial residual = 0.0585126, Final residual = 2.96219e-09, No Iterations 15
DILUPBiCGStab:  Solving for dnp4, Initial residual = 0.0709318, Final residual = 4.95651e-09, No Iterations 14
DILUPBiCGStab:  Solving for dnp5, Initial residual = 0.041377, Final residual = 6.88315e-09, No Iterations 7
DILUPBiCGStab:  Solving for dnp6, Initial residual = 0.00371521, Final residual = 6.87984e-09, No Iterations 8
DILUPBiCGStab:  Solving for dnp7, Initial residual = 3.13285e-05, Final residual = 5.07418e-09, No Iterations 3
DILUPBiCGStab:  Solving for dnp8, Initial residual = 2.07631e-05, Final residual = 1.49827e-09, No Iterations 2
DILUPBiCGStab:  Solving for T, Initial residual = 0.0181263, Final residual = 7.85658e-07, No Iterations 4
ExecutionTime = 2.84 s  ClockTime = 3 s

Courant Number mean: 4.09553 max: 18.9387
Time = 14

DILUPBiCGStab:  Solving for dnp1, Initial residual = 0.0525692, Final residual = 6.75963e-09, No Iterations 8
DILUPBiCGStab:  Solving for dnp2, Initial residual = 0.054854, Final residual = 1.18095e-09, No Iterations 15
DILUPBiCGStab:  Solving for dnp3, Initial residual = 0.0575178, Final residual = 9.53226e-10, No Iterations 15
DILUPBiCGStab:  Solving for dnp4, Initial residual = 0.0675614, Final residual = 8.78811e-09, No Iterations 14
DILUPBiCGStab:  Solving for dnp5, Initial residual = 0.0332555, Final residual = 4.31734e-09, No Iterations 7
DILUPBiCGStab:  Solving for dnp6, Initial residual = 0.00222625, Final residual = 4.92523e-09, No Iterations 8
DILUPBiCGStab:  Solving for dnp7, Initial residual = 2.25265e-05, Final residual = 9.43176e-09, No Iterations 3
DILUPBiCGStab:  Solving for dnp8, Initial residual = 2.12549e-05, Final residual = 9.45644e-09, No Iterations 2
DILUPBiCGStab:  Solving for T, Initial residual = 0.0172304, Final residual = 8.73749e-07, No Iterations 5
ExecutionTime = 3.04 s  ClockTime = 3 s

Courant Number mean: 4.09553 max: 18.9387
Time = 15

DILUPBiCGStab:  Solving for dnp1, Initial residual = 0.0515507, Final residual = 6.62503e-09, No Iterations 8
DILUPBiCGStab:  Solving for dnp2, Initial residual = 0.0539199, Final residual = 9.53993e-10, No Iterations 15
DILUPBiCGStab:  Solving for dnp3, Initial residual = 0.0565696, Final residual = 5.52223e-09, No Iterations 14
DILUPBiCGStab:  Solving for dnp4, Initial residual = 0.0639236, Final residual = 5.37552e-09, No Iterations 14
DILUPBiCGStab:  Solving for dnp5, Initial residual = 0.0264506, Final residual = 7.68225e-09, No Iterations 6
DILUPBiCGStab:  Solving for dnp6, Initial residual = 0.00132991, Final residual = 8.20584e-09, No Iterations 8
DILUPBiCGStab:  Solving for dnp7, Initial residual = 2.07658e-05, Final residual = 7.21421e-09, No Iterations 3
DILUPBiCGStab:  Solving for dnp8, Initial residual = 2.15784e-05, Final residual = 8.26937e-09, No Iterations 2
DILUPBiCGStab:  Solving for T, Initial residual = 0.0164449, Final residual = 1.97298e-07, No Iterations 6
ExecutionTime = 3.24 s  ClockTime = 4 s

Courant Number mean: 4.09553 max: 18.9387
Time = 16

DILUPBiCGStab:  Solving for dnp1, Initial residual = 0.050644, Final residual = 9.71142e-09, No Iterations 8
DILUPBiCGStab:  Solving for dnp2, Initial residual = 0.0529785, Final residual = 6.75525e-10, No Iterations 15
DILUPBiCGStab:  Solving for dnp3, Initial residual = 0.0556435, Final residual = 8.38128e-09, No Iterations 14
DILUPBiCGStab:  Solving for dnp4, Initial residual = 0.0600615, Final residual = 7.79384e-09, No Iterations 13
DILUPBiCGStab:  Solving for dnp5, Initial residual = 0.0208651, Final residual = 4.90783e-09, No Iterations 6
DILUPBiCGStab:  Solving for dnp6, Initial residual = 0.000791482, Final residual = 6.11263e-09, No Iterations 8
DILUPBiCGStab:  Solving for dnp7, Initial residual = 2.0847e-05, Final residual = 6.95203e-09, No Iterations 3
DILUPBiCGStab:  Solving for dnp8, Initial residual = 2.17641e-05, Final residual = 7.34931e-09, No Iterations 2
DILUPBiCGStab:  Solving for T, Initial residual = 0.0157327, Final residual = 9.8033e-07, No Iterations 5
ExecutionTime = 3.44 s  ClockTime = 4 s

Courant Number mean: 4.09553 max: 18.9387
Time = 17

DILUPBiCGStab:  Solving for dnp1, Initial residual = 0.0497632, Final residual = 5.84903e-09, No Iterations 8
DILUPBiCGStab:  Solving for dnp2, Initial residual = 0.0520522, Final residual = 6.37158e-09, No Iterations 14
DILUPBiCGStab:  Solving for dnp3, Initial residual = 0.0547673, Final residual = 1.62958e-09, No Iterations 14
DILUPBiCGStab:  Solving for dnp4, Initial residual = 0.0560376, Final residual = 5.6631e-09, No Iterations 14
DILUPBiCGStab:  Solving for dnp5, Initial residual = 0.0163534, Final residual = 9.37807e-09, No Iterations 6
DILUPBiCGStab:  Solving for dnp6, Initial residual = 0.000468539, Final residual = 4.51501e-09, No Iterations 8
DILUPBiCGStab:  Solving for dnp7, Initial residual = 2.12279e-05, Final residual = 5.8554e-09, No Iterations 3
DILUPBiCGStab:  Solving for dnp8, Initial residual = 2.18407e-05, Final residual = 6.86402e-09, No Iterations 2
DILUPBiCGStab:  Solving for T, Initial residual = 0.0151155, Final residual = 7.88828e-07, No Iterations 5
ExecutionTime = 3.63 s  ClockTime = 4 s

Courant Number mean: 4.09553 max: 18.9387
Time = 18

DILUPBiCGStab:  Solving for dnp1, Initial residual = 0.0488337, Final residual = 9.34535e-09, No Iterations 8
DILUPBiCGStab:  Solving for dnp2, Initial residual = 0.051206, Final residual = 3.5375e-09, No Iterations 14
DILUPBiCGStab:  Solving for dnp3, Initial residual = 0.0539171, Final residual = 7.6901e-09, No Iterations 14
DILUPBiCGStab:  Solving for dnp4, Initial residual = 0.0519359, Final residual = 3.31081e-09, No Iterations 14
DILUPBiCGStab:  Solving for dnp5, Initial residual = 0.0127548, Final residual = 6.37631e-09, No Iterations 6
DILUPBiCGStab:  Solving for dnp6, Initial residual = 0.000275493, Final residual = 6.69172e-09, No Iterations 7
DILUPBiCGStab:  Solving for dnp7, Initial residual = 2.14011e-05, Final residual = 4.74298e-09, No Iterations 3
DILUPBiCGStab:  Solving for dnp8, Initial residual = 2.18147e-05, Final residual = 6.63384e-09, No Iterations 2
DILUPBiCGStab:  Solving for T, Initial residual = 0.0145541, Final residual = 6.85672e-07, No Iterations 5
ExecutionTime = 3.79 s  ClockTime = 4 s

Courant Number mean: 4.09553 max: 18.9387
Time = 19

DILUPBiCGStab:  Solving for dnp1, Initial residual = 0.0479912, Final residual = 1.77852e-09, No Iterations 9
DILUPBiCGStab:  Solving for dnp2, Initial residual = 0.0503598, Final residual = 9.45552e-09, No Iterations 13
DILUPBiCGStab:  Solving for dnp3, Initial residual = 0.0530728, Final residual = 7.04017e-09, No Iterations 13
DILUPBiCGStab:  Solving for dnp4, Initial residual = 0.047831, Final residual = 5.90579e-09, No Iterations 13
DILUPBiCGStab:  Solving for dnp5, Initial residual = 0.00991201, Final residual = 4.54742e-09, No Iterations 6
DILUPBiCGStab:  Solving for dnp6, Initial residual = 0.000162164, Final residual = 4.11629e-09, No Iterations 7
DILUPBiCGStab:  Solving for dnp7, Initial residual = 2.14004e-05, Final residual = 4.33104e-09, No Iterations 3
DILUPBiCGStab:  Solving for dnp8, Initial residual = 2.1704e-05, Final residual = 6.58218e-09, No Iterations 2
DILUPBiCGStab:  Solving for T, Initial residual = 0.0140617, Final residual = 5.82826e-07, No Iterations 5
ExecutionTime = 3.96 s  ClockTime = 4 s

Courant Number mean: 4.09553 max: 18.9387
Time = 20

DILUPBiCGStab:  Solving for dnp1, Initial residual = 0.0471261, Final residual = 2.04645e-09, No Iterations 9
DILUPBiCGStab:  Solving for dnp2, Initial residual = 0.0495681, Final residual = 5.41399e-09, No Iterations 14
DILUPBiCGStab:  Solving for dnp3, Initial residual = 0.052193, Final residual = 5.02804e-09, No Iterations 14
DILUPBiCGStab:  Solving for dnp4, Initial residual = 0.0437935, Final residual = 6.37127e-09, No Iterations 13
DILUPBiCGStab:  Solving for dnp5, Initial residual = 0.00768241, Final residual = 3.49273e-09, No Iterations 6
DILUPBiCGStab:  Solving for dnp6, Initial residual = 9.69184e-05, Final residual = 6.10082e-09, No Iterations 7
DILUPBiCGStab:  Solving for dnp7, Initial residual = 2.12821e-05, Final residual = 5.22358e-09, No Iterations 3
DILUPBiCGStab:  Solving for dnp8, Initial residual = 2.15158e-05, Final residual = 6.68276e-09, No Iterations 2
DILUPBiCGStab:  Solving for T, Initial residual = 0.0136004, Final residual = 4.80411e-07, No Iterations 5
ExecutionTime = 4.13 s  ClockTime = 4 s

Courant Number mean: 4.09553 max: 18.9387
Time = 21

DILUPBiCGStab:  Solving for dnp1, Initial residual = 0.0462215, Final residual = 2.29571e-09, No Iterations 9
DILUPBiCGStab:  Solving for dnp2, Initial residual = 0.0487774, Final residual = 5.04395e-09, No Iterations 15
DILUPBiCGStab:  Solving for dnp3, Initial residual = 0.0512689, Final residual = 8.542e-09, No Iterations 14
DILUPBiCGStab:  Solving for dnp4, Initial residual = 0.0398802, Final residual = 6.32408e-09, No Iterations 13
DILUPBiCGStab:  Solving for dnp5, Initial residual = 0.00594342, Final residual = 2.97526e-09, No Iterations 6
DILUPBiCGStab:  Solving for dnp6, Initial residual = 6.02425e-05, Final residual = 9.61408e-09, No Iterations 6
DILUPBiCGStab:  Solving for dnp7, Initial residual = 2.10755e-05, Final residual = 6.0581e-09, No Iterations 3
DILUPBiCGStab:  Solving for dnp8, Initial residual = 2.1271e-05, Final residual = 6.92621e-09, No Iterations 2
DILUPBiCGStab:  Solving for T, Initial residual = 0.0131761, Final residual = 3.86572e-07, No Iterations 5
ExecutionTime = 4.3 s  ClockTime = 5 s

Courant Number mean: 4.09553 max: 18.9387
Time = 22

DILUPBiCGStab:  Solving for dnp1, Initial residual = 0.0453609, Final residual = 2.39684e-09, No Iterations 9
DILUPBiCGStab:  Solving for dnp2, Initial residual = 0.0479501, Final residual = 7.33595e-09, No Iterations 14
DILUPBiCGStab:  Solving for dnp3, Initial residual = 0.0502802, Final residual = 5.89225e-09, No Iterations 14
DILUPBiCGStab:  Solving for dnp4, Initial residual = 0.0361335, Final residual = 9.27955e-10, No Iterations 14
DILUPBiCGStab:  Solving for dnp5, Initial residual = 0.00459204, Final residual = 2.88743e-09, No Iterations 6
DILUPBiCGStab:  Solving for dnp6, Initial residual = 4.00967e-05, Final residual = 4.7285e-09, No Iterations 6
DILUPBiCGStab:  Solving for dnp7, Initial residual = 2.08126e-05, Final residual = 6.36822e-09, No Iterations 3
DILUPBiCGStab:  Solving for dnp8, Initial residual = 2.09701e-05, Final residual = 7.30826e-09, No Iterations 2
DILUPBiCGStab:  Solving for T, Initial residual = 0.0127756, Final residual = 3.06935e-07, No Iterations 5
ExecutionTime = 4.47 s  ClockTime = 5 s

Courant Number mean: 4.09553 max: 18.9387
Time = 23

DILUPBiCGStab:  Solving for dnp1, Initial residual = 0.0444985, Final residual = 2.22234e-09, No Iterations 9
DILUPBiCGStab:  Solving for dnp2, Initial residual = 0.0470983, Final residual = 8.11797e-09, No Iterations 14
DILUPBiCGStab:  Solving for dnp3, Initial residual = 0.0492351, Final residual = 6.01443e-09, No Iterations 14
DILUPBiCGStab:  Solving for dnp4, Initial residual = 0.0325877, Final residual = 1.13751e-09, No Iterations 14
DILUPBiCGStab:  Solving for dnp5, Initial residual = 0.00354449, Final residual = 7.13223e-09, No Iterations 5
DILUPBiCGStab:  Solving for dnp6, Initial residual = 2.92754e-05, Final residual = 7.74702e-09, No Iterations 6
DILUPBiCGStab:  Solving for dnp7, Initial residual = 2.05e-05, Final residual = 6.86999e-09, No Iterations 3
DILUPBiCGStab:  Solving for dnp8, Initial residual = 2.06378e-05, Final residual = 7.8144e-09, No Iterations 2
DILUPBiCGStab:  Solving for T, Initial residual = 0.0124109, Final residual = 2.46218e-07, No Iterations 5
ExecutionTime = 4.64 s  ClockTime = 5 s

Courant Number mean: 4.09553 max: 18.9387
Time = 24

DILUPBiCGStab:  Solving for dnp1, Initial residual = 0.0436994, Final residual = 1.9175e-09, No Iterations 9
DILUPBiCGStab:  Solving for dnp2, Initial residual = 0.0461811, Final residual = 7.1247e-09, No Iterations 14
DILUPBiCGStab:  Solving for dnp3, Initial residual = 0.048117, Final residual = 8.03541e-09, No Iterations 14
DILUPBiCGStab:  Solving for dnp4, Initial residual = 0.0292636, Final residual = 4.50396e-09, No Iterations 13
DILUPBiCGStab:  Solving for dnp5, Initial residual = 0.00273384, Final residual = 4.50922e-09, No Iterations 5
DILUPBiCGStab:  Solving for dnp6, Initial residual = 2.35544e-05, Final residual = 8.89039e-09, No Iterations 6
DILUPBiCGStab:  Solving for dnp7, Initial residual = 2.01598e-05, Final residual = 7.6106e-09, No Iterations 3
DILUPBiCGStab:  Solving for dnp8, Initial residual = 2.02779e-05, Final residual = 8.42465e-09, No Iterations 2
DILUPBiCGStab:  Solving for T, Initial residual = 0.0120578, Final residual = 2.03741e-07, No Iterations 5
ExecutionTime = 4.81 s  ClockTime = 5 s

Courant Number mean: 4.09553 max: 18.9387
Time = 25

DILUPBiCGStab:  Solving for dnp1, Initial residual = 0.0428162, Final residual = 6.07008e-09, No Iterations 8
DILUPBiCGStab:  Solving for dnp2, Initial residual = 0.0452049, Final residual = 5.96498e-09, No Iterations 14
DILUPBiCGStab:  Solving for dnp3, Initial residual = 0.0469543, Final residual = 9.96585e-09, No Iterations 13
DILUPBiCGStab:  Solving for dnp4, Initial residual = 0.0261754, Final residual = 5.24866e-09, No Iterations 12
DILUPBiCGStab:  Solving for dnp5, Initial residual = 0.00210728, Final residual = 3.49566e-09, No Iterations 5
DILUPBiCGStab:  Solving for dnp6, Initial residual = 2.04926e-05, Final residual = 4.4083e-09, No Iterations 6
DILUPBiCGStab:  Solving for dnp7, Initial residual = 1.97992e-05, Final residual = 8.26933e-09, No Iterations 3
DILUPBiCGStab:  Solving for dnp8, Initial residual = 1.99025e-05, Final residual = 9.08576e-09, No Iterations 2
DILUPBiCGStab:  Solving for T, Initial residual = 0.0117322, Final residual = 1.77387e-07, No Iterations 5
ExecutionTime = 4.98 s  ClockTime = 5 s

Courant Number mean: 4.09553 max: 18.9387
Time = 26

DILUPBiCGStab:  Solving for dnp1, Initial residual = 0.0419739, Final residual = 8.30413e-09, No Iterations 8
DILUPBiCGStab:  Solving for dnp2, Initial residual = 0.0441753, Final residual = 7.71635e-09, No Iterations 14
DILUPBiCGStab:  Solving for dnp3, Initial residual = 0.0456938, Final residual = 7.54223e-09, No Iterations 13
DILUPBiCGStab:  Solving for dnp4, Initial residual = 0.0233295, Final residual = 4.56723e-09, No Iterations 12
DILUPBiCGStab:  Solving for dnp5, Initial residual = 0.00162341, Final residual = 9.58144e-09, No Iterations 5
DILUPBiCGStab:  Solving for dnp6, Initial residual = 1.87707e-05, Final residual = 6.44286e-09, No Iterations 5
DILUPBiCGStab:  Solving for dnp7, Initial residual = 1.94273e-05, Final residual = 8.81102e-09, No Iterations 3
DILUPBiCGStab:  Solving for dnp8, Initial residual = 1.9519e-05, Final residual = 9.73135e-09, No Iterations 2
DILUPBiCGStab:  Solving for T, Initial residual = 0.0114217, Final residual = 8.08063e-07, No Iterations 4
ExecutionTime = 5.15 s  ClockTime = 5 s

Courant Number mean: 4.09553 max: 18.9387
Time = 27

DILUPBiCGStab:  Solving for dnp1, Initial residual = 0.0410845, Final residual = 8.65314e-09, No Iterations 8
DILUPBiCGStab:  Solving for dnp2, Initial residual = 0.0431262, Final residual = 8.59898e-09, No Iterations 13
DILUPBiCGStab:  Solving for dnp3, Initial residual = 0.0444096, Final residual = 7.34853e-09, No Iterations 13
DILUPBiCGStab:  Solving for dnp4, Initial residual = 0.0207286, Final residual = 5.5629e-09, No Iterations 12
DILUPBiCGStab:  Solving for dnp5, Initial residual = 0.00124997, Final residual = 8.80071e-09, No Iterations 5
DILUPBiCGStab:  Solving for dnp6, Initial residual = 1.79266e-05, Final residual = 7.96956e-09, No Iterations 5
DILUPBiCGStab:  Solving for dnp7, Initial residual = 1.90566e-05, Final residual = 9.23964e-09, No Iterations 3
DILUPBiCGStab:  Solving for dnp8, Initial residual = 1.91406e-05, Final residual = 8.88233e-10, No Iterations 2
DILUPBiCGStab:  Solving for T, Initial residual = 0.0111351, Final residual = 5.86775e-07, No Iterations 4
ExecutionTime = 5.34 s  ClockTime = 6 s

Courant Number mean: 4.09553 max: 18.9387
Time = 28

DILUPBiCGStab:  Solving for dnp1, Initial residual = 0.0400765, Final residual = 8.77716e-09, No Iterations 8
DILUPBiCGStab:  Solving for dnp2, Initial residual = 0.0419465, Final residual = 9.33963e-09, No Iterations 13
DILUPBiCGStab:  Solving for dnp3, Initial residual = 0.0430662, Final residual = 7.72917e-09, No Iterations 13
DILUPBiCGStab:  Solving for dnp4, Initial residual = 0.0183729, Final residual = 5.93157e-09, No Iterations 12
DILUPBiCGStab:  Solving for dnp5, Initial residual = 0.000961887, Final residual = 8.29814e-09, No Iterations 5
DILUPBiCGStab:  Solving for dnp6, Initial residual = 1.77608e-05, Final residual = 3.73954e-09, No Iterations 5
DILUPBiCGStab:  Solving for dnp7, Initial residual = 1.86915e-05, Final residual = 9.77724e-09, No Iterations 3
DILUPBiCGStab:  Solving for dnp8, Initial residual = 1.87776e-05, Final residual = 9.33952e-10, No Iterations 2
DILUPBiCGStab:  Solving for T, Initial residual = 0.0108638, Final residual = 4.38431e-07, No Iterations 4
ExecutionTime = 5.5 s  ClockTime = 6 s

Courant Number mean: 4.09553 max: 18.9387
Time = 29

DILUPBiCGStab:  Solving for dnp1, Initial residual = 0.0390844, Final residual = 9.5152e-09, No Iterations 8
DILUPBiCGStab:  Solving for dnp2, Initial residual = 0.0406922, Final residual = 3.97549e-09, No Iterations 14
DILUPBiCGStab:  Solving for dnp3, Initial residual = 0.0416213, Final residual = 9.42943e-09, No Iterations 13
DILUPBiCGStab:  Solving for dnp4, Initial residual = 0.0162565, Final residual = 8.32818e-09, No Iterations 12
DILUPBiCGStab:  Solving for dnp5, Initial residual = 0.000739733, Final residual = 8.01513e-09, No Iterations 5
DILUPBiCGStab:  Solving for dnp6, Initial residual = 1.77552e-05, Final residual = 5.99373e-09, No Iterations 5
DILUPBiCGStab:  Solving for dnp7, Initial residual = 1.83383e-05, Final residual = 3.33679e-09, No Iterations 3
DILUPBiCGStab:  Solving for dnp8, Initial residual = 1.8423e-05, Final residual = 1.04713e-09, No Iterations 2
DILUPBiCGStab:  Solving for T, Initial residual = 0.0106006, Final residual = 3.40402e-07, No Iterations 4
ExecutionTime = 5.69 s  ClockTime = 6 s

Courant Number mean: 4.09553 max: 18.9387
Time = 30

DILUPBiCGStab:  Solving for dnp1, Initial residual = 0.0380803, Final residual = 4.2414e-09, No Iterations 8
DILUPBiCGStab:  Solving for dnp2, Initial residual = 0.0394962, Final residual = 4.38831e-09, No Iterations 14
DILUPBiCGStab:  Solving for dnp3, Initial residual = 0.0401283, Final residual = 3.00992e-09, No Iterations 14
DILUPBiCGStab:  Solving for dnp4, Initial residual = 0.014367, Final residual = 5.01473e-09, No Iterations 14
DILUPBiCGStab:  Solving for dnp5, Initial residual = 0.000568475, Final residual = 8.00185e-09, No Iterations 5
DILUPBiCGStab:  Solving for dnp6, Initial residual = 1.76794e-05, Final residual = 7.44867e-09, No Iterations 5
DILUPBiCGStab:  Solving for dnp7, Initial residual = 1.79974e-05, Final residual = 3.31957e-09, No Iterations 3
DILUPBiCGStab:  Solving for dnp8, Initial residual = 1.8086e-05, Final residual = 1.26073e-09, No Iterations 2
DILUPBiCGStab:  Solving for T, Initial residual = 0.0103556, Final residual = 8.69636e-07, No Iterations 4
ExecutionTime = 5.87 s  ClockTime = 6 s

Courant Number mean: 4.09553 max: 18.9387
Time = 31

DILUPBiCGStab:  Solving for dnp1, Initial residual = 0.0369911, Final residual = 4.84439e-09, No Iterations 8
DILUPBiCGStab:  Solving for dnp2, Initial residual = 0.0382309, Final residual = 6.11547e-09, No Iterations 14
DILUPBiCGStab:  Solving for dnp3, Initial residual = 0.0386933, Final residual = 5.26832e-09, No Iterations 14
DILUPBiCGStab:  Solving for dnp4, Initial residual = 0.0126878, Final residual = 8.84413e-11, No Iterations 15
DILUPBiCGStab:  Solving for dnp5, Initial residual = 0.000436489, Final residual = 8.55072e-09, No Iterations 5
DILUPBiCGStab:  Solving for dnp6, Initial residual = 1.75309e-05, Final residual = 8.63276e-09, No Iterations 5
DILUPBiCGStab:  Solving for dnp7, Initial residual = 1.76739e-05, Final residual = 9.69019e-09, No Iterations 3
DILUPBiCGStab:  Solving for dnp8, Initial residual = 1.77672e-05, Final residual = 1.54282e-09, No Iterations 2
DILUPBiCGStab:  Solving for T, Initial residual = 0.0101165, Final residual = 7.20049e-07, No Iterations 4
ExecutionTime = 6.06 s  ClockTime = 6 s

Courant Number mean: 4.09553 max: 18.9387
Time = 32

DILUPBiCGStab:  Solving for dnp1, Initial residual = 0.0357783, Final residual = 5.485e-09, No Iterations 8
DILUPBiCGStab:  Solving for dnp2, Initial residual = 0.036929, Final residual = 1.90771e-09, No Iterations 15
DILUPBiCGStab:  Solving for dnp3, Initial residual = 0.0372095, Final residual = 8.3716e-09, No Iterations 14
DILUPBiCGStab:  Solving for dnp4, Initial residual = 0.0112001, Final residual = 9.16318e-09, No Iterations 13
DILUPBiCGStab:  Solving for dnp5, Initial residual = 0.000334797, Final residual = 9.6432e-09, No Iterations 4
DILUPBiCGStab:  Solving for dnp6, Initial residual = 1.73372e-05, Final residual = 9.13746e-09, No Iterations 5
DILUPBiCGStab:  Solving for dnp7, Initial residual = 1.73755e-05, Final residual = 8.94257e-09, No Iterations 3
DILUPBiCGStab:  Solving for dnp8, Initial residual = 1.74677e-05, Final residual = 1.84391e-09, No Iterations 2
DILUPBiCGStab:  Solving for T, Initial residual = 0.00988555, Final residual = 6.24104e-07, No Iterations 4
ExecutionTime = 6.25 s  ClockTime = 7 s

Courant Number mean: 4.09553 max: 18.9387
Time = 33

DILUPBiCGStab:  Solving for dnp1, Initial residual = 0.0345178, Final residual = 6.1053e-09, No Iterations 8
DILUPBiCGStab:  Solving for dnp2, Initial residual = 0.0355462, Final residual = 1.72487e-09, No Iterations 15
DILUPBiCGStab:  Solving for dnp3, Initial residual = 0.035729, Final residual = 1.00995e-09, No Iterations 15
DILUPBiCGStab:  Solving for dnp4, Initial residual = 0.00988437, Final residual = 5.48852e-09, No Iterations 14
DILUPBiCGStab:  Solving for dnp5, Initial residual = 0.000256467, Final residual = 7.80808e-09, No Iterations 4
DILUPBiCGStab:  Solving for dnp6, Initial residual = 1.71182e-05, Final residual = 9.38611e-09, No Iterations 5
DILUPBiCGStab:  Solving for dnp7, Initial residual = 1.71009e-05, Final residual = 8.84455e-09, No Iterations 3
DILUPBiCGStab:  Solving for dnp8, Initial residual = 1.71951e-05, Final residual = 2.06535e-09, No Iterations 2
DILUPBiCGStab:  Solving for T, Initial residual = 0.00966516, Final residual = 5.60178e-07, No Iterations 4
ExecutionTime = 6.44 s  ClockTime = 7 s

Courant Number mean: 4.09553 max: 18.9387
Time = 34

DILUPBiCGStab:  Solving for dnp1, Initial residual = 0.0332566, Final residual = 6.93966e-09, No Iterations 8
DILUPBiCGStab:  Solving for dnp2, Initial residual = 0.034167, Final residual = 1.54049e-09, No Iterations 15
DILUPBiCGStab:  Solving for dnp3, Initial residual = 0.0342368, Final residual = 9.64847e-10, No Iterations 15
DILUPBiCGStab:  Solving for dnp4, Initial residual = 0.0087192, Final residual = 4.32283e-09, No Iterations 13
DILUPBiCGStab:  Solving for dnp5, Initial residual = 0.000196146, Final residual = 6.24459e-09, No Iterations 4
DILUPBiCGStab:  Solving for dnp6, Initial residual = 1.68867e-05, Final residual = 9.66702e-09, No Iterations 5
DILUPBiCGStab:  Solving for dnp7, Initial residual = 1.68424e-05, Final residual = 9.87397e-09, No Iterations 3
DILUPBiCGStab:  Solving for dnp8, Initial residual = 1.69425e-05, Final residual = 2.12086e-09, No Iterations 2
DILUPBiCGStab:  Solving for T, Initial residual = 0.00945124, Final residual = 5.21813e-07, No Iterations 4
ExecutionTime = 6.63 s  ClockTime = 7 s

Courant Number mean: 4.09553 max: 18.9387
Time = 35

DILUPBiCGStab:  Solving for dnp1, Initial residual = 0.03206, Final residual = 7.49346e-09, No Iterations 8
DILUPBiCGStab:  Solving for dnp2, Initial residual = 0.0327594, Final residual = 1.38056e-09, No Iterations 15
DILUPBiCGStab:  Solving for dnp3, Initial residual = 0.0327076, Final residual = 1.06849e-09, No Iterations 15
DILUPBiCGStab:  Solving for dnp4, Initial residual = 0.00768815, Final residual = 9.50491e-09, No Iterations 13
DILUPBiCGStab:  Solving for dnp5, Initial residual = 0.000149706, Final residual = 4.98381e-09, No Iterations 4
DILUPBiCGStab:  Solving for dnp6, Initial residual = 1.66569e-05, Final residual = 4.71806e-09, No Iterations 5
DILUPBiCGStab:  Solving for dnp7, Initial residual = 1.66009e-05, Final residual = 3.42387e-09, No Iterations 3
DILUPBiCGStab:  Solving for dnp8, Initial residual = 1.67041e-05, Final residual = 2.01429e-09, No Iterations 2
DILUPBiCGStab:  Solving for T, Initial residual = 0.00924344, Final residual = 5.21326e-07, No Iterations 4
ExecutionTime = 6.83 s  ClockTime = 7 s

Courant Number mean: 4.09553 max: 18.9387
Time = 36

DILUPBiCGStab:  Solving for dnp1, Initial residual = 0.030835, Final residual = 6.87794e-09, No Iterations 8
DILUPBiCGStab:  Solving for dnp2, Initial residual = 0.031405, Final residual = 1.50121e-09, No Iterations 15
DILUPBiCGStab:  Solving for dnp3, Initial residual = 0.0312673, Final residual = 1.10248e-09, No Iterations 15
DILUPBiCGStab:  Solving for dnp4, Initial residual = 0.00677658, Final residual = 4.87313e-09, No Iterations 13
DILUPBiCGStab:  Solving for dnp5, Initial residual = 0.000114224, Final residual = 3.96062e-09, No Iterations 4
DILUPBiCGStab:  Solving for dnp6, Initial residual = 1.64419e-05, Final residual = 5.00618e-09, No Iterations 5
DILUPBiCGStab:  Solving for dnp7, Initial residual = 1.63804e-05, Final residual = 3.65477e-09, No Iterations 3
DILUPBiCGStab:  Solving for dnp8, Initial residual = 1.64869e-05, Final residual = 1.82512e-09, No Iterations 2
DILUPBiCGStab:  Solving for T, Initial residual = 0.00904402, Final residual = 6.43046e-07, No Iterations 4
ExecutionTime = 7.01 s  ClockTime = 7 s

Courant Number mean: 4.09553 max: 18.9387
Time = 37

DILUPBiCGStab:  Solving for dnp1, Initial residual = 0.0295423, Final residual = 6.04292e-09, No Iterations 8
DILUPBiCGStab:  Solving for dnp2, Initial residual = 0.0301465, Final residual = 1.81172e-09, No Iterations 15
DILUPBiCGStab:  Solving for dnp3, Initial residual = 0.0298751, Final residual = 1.35824e-09, No Iterations 15
DILUPBiCGStab:  Solving for dnp4, Initial residual = 0.0059712, Final residual = 8.93734e-09, No Iterations 13
DILUPBiCGStab:  Solving for dnp5, Initial residual = 8.75037e-05, Final residual = 3.08672e-09, No Iterations 4
DILUPBiCGStab:  Solving for dnp6, Initial residual = 1.62315e-05, Final residual = 5.36749e-09, No Iterations 5
DILUPBiCGStab:  Solving for dnp7, Initial residual = 1.6175e-05, Final residual = 3.84081e-09, No Iterations 3
DILUPBiCGStab:  Solving for dnp8, Initial residual = 1.62881e-05, Final residual = 1.64619e-09, No Iterations 2
DILUPBiCGStab:  Solving for T, Initial residual = 0.0088513, Final residual = 9.80835e-07, No Iterations 4
ExecutionTime = 7.21 s  ClockTime = 7 s

Courant Number mean: 4.09553 max: 18.9387
Time = 38

DILUPBiCGStab:  Solving for dnp1, Initial residual = 0.0283043, Final residual = 5.17633e-09, No Iterations 8
DILUPBiCGStab:  Solving for dnp2, Initial residual = 0.028901, Final residual = 2.04616e-09, No Iterations 15
DILUPBiCGStab:  Solving for dnp3, Initial residual = 0.0285363, Final residual = 1.44959e-09, No Iterations 15
DILUPBiCGStab:  Solving for dnp4, Initial residual = 0.00526009, Final residual = 5.79465e-09, No Iterations 13
DILUPBiCGStab:  Solving for dnp5, Initial residual = 6.73847e-05, Final residual = 7.89736e-09, No Iterations 4
DILUPBiCGStab:  Solving for dnp6, Initial residual = 1.6033e-05, Final residual = 5.76943e-09, No Iterations 5
DILUPBiCGStab:  Solving for dnp7, Initial residual = 1.59816e-05, Final residual = 3.97966e-09, No Iterations 3
DILUPBiCGStab:  Solving for dnp8, Initial residual = 1.60965e-05, Final residual = 1.5444e-09, No Iterations 2
DILUPBiCGStab:  Solving for T, Initial residual = 0.00866159, Final residual = 7.00998e-07, No Iterations 4
ExecutionTime = 7.39 s  ClockTime = 8 s

Courant Number mean: 4.09553 max: 18.9387
Time = 39

DILUPBiCGStab:  Solving for dnp1, Initial residual = 0.0270708, Final residual = 4.3549e-09, No Iterations 8
DILUPBiCGStab:  Solving for dnp2, Initial residual = 0.0276515, Final residual = 5.84582e-09, No Iterations 14
DILUPBiCGStab:  Solving for dnp3, Initial residual = 0.0272638, Final residual = 6.81065e-09, No Iterations 14
DILUPBiCGStab:  Solving for dnp4, Initial residual = 0.00463251, Final residual = 9.95765e-09, No Iterations 12
DILUPBiCGStab:  Solving for dnp5, Initial residual = 5.21971e-05, Final residual = 5.77367e-09, No Iterations 4
DILUPBiCGStab:  Solving for dnp6, Initial residual = 1.58518e-05, Final residual = 6.18448e-09, No Iterations 5
DILUPBiCGStab:  Solving for dnp7, Initial residual = 1.58096e-05, Final residual = 4.07723e-09, No Iterations 3
DILUPBiCGStab:  Solving for dnp8, Initial residual = 1.59254e-05, Final residual = 1.49864e-09, No Iterations 2
DILUPBiCGStab:  Solving for T, Initial residual = 0.00848268, Final residual = 1.63092e-07, No Iterations 5
ExecutionTime = 7.59 s  ClockTime = 8 s

Courant Number mean: 4.09553 max: 18.9387
Time = 40

DILUPBiCGStab:  Solving for dnp1, Initial residual = 0.0258074, Final residual = 9.58791e-09, No Iterations 8
DILUPBiCGStab:  Solving for dnp2, Initial residual = 0.0264588, Final residual = 7.03805e-09, No Iterations 14
DILUPBiCGStab:  Solving for dnp3, Initial residual = 0.0261326, Final residual = 3.76838e-09, No Iterations 14
DILUPBiCGStab:  Solving for dnp4, Initial residual = 0.00407884, Final residual = 9.23329e-09, No Iterations 12
DILUPBiCGStab:  Solving for dnp5, Initial residual = 4.07139e-05, Final residual = 9.3461e-09, No Iterations 3
DILUPBiCGStab:  Solving for dnp6, Initial residual = 1.56735e-05, Final residual = 6.54847e-09, No Iterations 5
DILUPBiCGStab:  Solving for dnp7, Initial residual = 1.56393e-05, Final residual = 4.13979e-09, No Iterations 3
DILUPBiCGStab:  Solving for dnp8, Initial residual = 1.57588e-05, Final residual = 1.47221e-09, No Iterations 2
DILUPBiCGStab:  Solving for T, Initial residual = 0.00830663, Final residual = 1.67492e-07, No Iterations 5
ExecutionTime = 7.78 s  ClockTime = 8 s

Courant Number mean: 4.09553 max: 18.9387
Time = 41

DILUPBiCGStab:  Solving for dnp1, Initial residual = 0.024532, Final residual = 9.41197e-09, No Iterations 8
DILUPBiCGStab:  Solving for dnp2, Initial residual = 0.0253752, Final residual = 7.78021e-09, No Iterations 14
DILUPBiCGStab:  Solving for dnp3, Initial residual = 0.0251115, Final residual = 4.23096e-09, No Iterations 14
DILUPBiCGStab:  Solving for dnp4, Initial residual = 0.00359059, Final residual = 8.51832e-09, No Iterations 12
DILUPBiCGStab:  Solving for dnp5, Initial residual = 3.20095e-05, Final residual = 6.59564e-09, No Iterations 3
DILUPBiCGStab:  Solving for dnp6, Initial residual = 1.55127e-05, Final residual = 6.8374e-09, No Iterations 5
DILUPBiCGStab:  Solving for dnp7, Initial residual = 1.54833e-05, Final residual = 4.17486e-09, No Iterations 3
DILUPBiCGStab:  Solving for dnp8, Initial residual = 1.56013e-05, Final residual = 1.46188e-09, No Iterations 2
DILUPBiCGStab:  Solving for T, Initial residual = 0.00813218, Final residual = 1.69733e-07, No Iterations 5
ExecutionTime = 7.97 s  ClockTime = 8 s

Courant Number mean: 4.09553 max: 18.9387
Time = 42

DILUPBiCGStab:  Solving for dnp1, Initial residual = 0.0233535, Final residual = 7.51008e-09, No Iterations 8
DILUPBiCGStab:  Solving for dnp2, Initial residual = 0.0243638, Final residual = 7.12022e-09, No Iterations 14
DILUPBiCGStab:  Solving for dnp3, Initial residual = 0.0241683, Final residual = 4.30006e-09, No Iterations 14
DILUPBiCGStab:  Solving for dnp4, Initial residual = 0.00316014, Final residual = 7.85736e-09, No Iterations 12
DILUPBiCGStab:  Solving for dnp5, Initial residual = 2.53859e-05, Final residual = 4.49552e-09, No Iterations 3
DILUPBiCGStab:  Solving for dnp6, Initial residual = 1.53545e-05, Final residual = 7.04254e-09, No Iterations 5
DILUPBiCGStab:  Solving for dnp7, Initial residual = 1.53333e-05, Final residual = 4.18983e-09, No Iterations 3
DILUPBiCGStab:  Solving for dnp8, Initial residual = 1.54517e-05, Final residual = 1.46419e-09, No Iterations 2
DILUPBiCGStab:  Solving for T, Initial residual = 0.00796846, Final residual = 6.24486e-07, No Iterations 4
ExecutionTime = 8.16 s  ClockTime = 8 s

Courant Number mean: 4.09553 max: 18.9387
Time = 43

DILUPBiCGStab:  Solving for dnp1, Initial residual = 0.0222194, Final residual = 5.96138e-09, No Iterations 8
DILUPBiCGStab:  Solving for dnp2, Initial residual = 0.0234459, Final residual = 6.64949e-09, No Iterations 14
DILUPBiCGStab:  Solving for dnp3, Initial residual = 0.0232841, Final residual = 3.61299e-09, No Iterations 14
DILUPBiCGStab:  Solving for dnp4, Initial residual = 0.00278078, Final residual = 6.96426e-09, No Iterations 12
DILUPBiCGStab:  Solving for dnp5, Initial residual = 2.03274e-05, Final residual = 2.96356e-09, No Iterations 3
DILUPBiCGStab:  Solving for dnp6, Initial residual = 1.52079e-05, Final residual = 7.15051e-09, No Iterations 5
DILUPBiCGStab:  Solving for dnp7, Initial residual = 1.51903e-05, Final residual = 4.19144e-09, No Iterations 3
DILUPBiCGStab:  Solving for dnp8, Initial residual = 1.53075e-05, Final residual = 1.47544e-09, No Iterations 2
DILUPBiCGStab:  Solving for T, Initial residual = 0.00780717, Final residual = 4.96282e-07, No Iterations 4
ExecutionTime = 8.34 s  ClockTime = 9 s

Courant Number mean: 4.09553 max: 18.9387
Time = 44

DILUPBiCGStab:  Solving for dnp1, Initial residual = 0.0211301, Final residual = 5.63452e-09, No Iterations 8
DILUPBiCGStab:  Solving for dnp2, Initial residual = 0.0226375, Final residual = 6.39417e-09, No Iterations 14
DILUPBiCGStab:  Solving for dnp3, Initial residual = 0.0224555, Final residual = 3.37297e-09, No Iterations 14
DILUPBiCGStab:  Solving for dnp4, Initial residual = 0.00244654, Final residual = 6.36365e-09, No Iterations 12
DILUPBiCGStab:  Solving for dnp5, Initial residual = 1.65405e-05, Final residual = 8.58433e-09, No Iterations 3
DILUPBiCGStab:  Solving for dnp6, Initial residual = 1.50624e-05, Final residual = 7.16366e-09, No Iterations 5
DILUPBiCGStab:  Solving for dnp7, Initial residual = 1.50487e-05, Final residual = 4.18346e-09, No Iterations 3
DILUPBiCGStab:  Solving for dnp8, Initial residual = 1.51672e-05, Final residual = 1.49263e-09, No Iterations 2
DILUPBiCGStab:  Solving for T, Initial residual = 0.00765061, Final residual = 4.24784e-07, No Iterations 4
ExecutionTime = 8.54 s  ClockTime = 9 s

Courant Number mean: 4.09553 max: 18.9387
Time = 45

DILUPBiCGStab:  Solving for dnp1, Initial residual = 0.0200686, Final residual = 9.72971e-09, No Iterations 7
DILUPBiCGStab:  Solving for dnp2, Initial residual = 0.0219116, Final residual = 4.42567e-09, No Iterations 14
DILUPBiCGStab:  Solving for dnp3, Initial residual = 0.021682, Final residual = 8.11582e-09, No Iterations 13
DILUPBiCGStab:  Solving for dnp4, Initial residual = 0.00215212, Final residual = 6.02176e-09, No Iterations 12
DILUPBiCGStab:  Solving for dnp5, Initial residual = 1.38794e-05, Final residual = 2.41117e-09, No Iterations 3
DILUPBiCGStab:  Solving for dnp6, Initial residual = 1.49249e-05, Final residual = 7.09723e-09, No Iterations 5
DILUPBiCGStab:  Solving for dnp7, Initial residual = 1.49133e-05, Final residual = 4.16818e-09, No Iterations 3
DILUPBiCGStab:  Solving for dnp8, Initial residual = 1.50299e-05, Final residual = 1.5139e-09, No Iterations 2
DILUPBiCGStab:  Solving for T, Initial residual = 0.00749573, Final residual = 9.51701e-07, No Iterations 4
ExecutionTime = 8.72 s  ClockTime = 9 s

Courant Number mean: 4.09553 max: 18.9387
Time = 46

DILUPBiCGStab:  Solving for dnp1, Initial residual = 0.0190978, Final residual = 9.63431e-09, No Iterations 7
DILUPBiCGStab:  Solving for dnp2, Initial residual = 0.021264, Final residual = 8.94218e-09, No Iterations 13
DILUPBiCGStab:  Solving for dnp3, Initial residual = 0.0209567, Final residual = 7.72221e-09, No Iterations 13
DILUPBiCGStab:  Solving for dnp4, Initial residual = 0.00189284, Final residual = 5.50511e-09, No Iterations 12
DILUPBiCGStab:  Solving for dnp5, Initial residual = 1.26752e-05, Final residual = 2.88286e-09, No Iterations 3
DILUPBiCGStab:  Solving for dnp6, Initial residual = 1.47892e-05, Final residual = 6.97409e-09, No Iterations 5
DILUPBiCGStab:  Solving for dnp7, Initial residual = 1.478e-05, Final residual = 4.14648e-09, No Iterations 3
DILUPBiCGStab:  Solving for dnp8, Initial residual = 1.48954e-05, Final residual = 1.5383e-09, No Iterations 2
DILUPBiCGStab:  Solving for T, Initial residual = 0.00735039, Final residual = 8.67218e-07, No Iterations 4
ExecutionTime = 8.91 s  ClockTime = 9 s

Courant Number mean: 4.09553 max: 18.9387
Time = 47

DILUPBiCGStab:  Solving for dnp1, Initial residual = 0.0182513, Final residual = 5.26479e-09, No Iterations 7
DILUPBiCGStab:  Solving for dnp2, Initial residual = 0.02068, Final residual = 9.50259e-09, No Iterations 13
DILUPBiCGStab:  Solving for dnp3, Initial residual = 0.020269, Final residual = 4.86991e-09, No Iterations 14
DILUPBiCGStab:  Solving for dnp4, Initial residual = 0.00166455, Final residual = 7.7982e-09, No Iterations 11
DILUPBiCGStab:  Solving for dnp5, Initial residual = 1.22785e-05, Final residual = 3.42326e-09, No Iterations 3
DILUPBiCGStab:  Solving for dnp6, Initial residual = 1.466e-05, Final residual = 6.81696e-09, No Iterations 5
DILUPBiCGStab:  Solving for dnp7, Initial residual = 1.4653e-05, Final residual = 4.11949e-09, No Iterations 3
DILUPBiCGStab:  Solving for dnp8, Initial residual = 1.47679e-05, Final residual = 1.56397e-09, No Iterations 2
DILUPBiCGStab:  Solving for T, Initial residual = 0.00720788, Final residual = 8.01887e-07, No Iterations 4
ExecutionTime = 9.1 s  ClockTime = 9 s

Courant Number mean: 4.09553 max: 18.9387
Time = 48

DILUPBiCGStab:  Solving for dnp1, Initial residual = 0.0174764, Final residual = 4.73178e-09, No Iterations 7
DILUPBiCGStab:  Solving for dnp2, Initial residual = 0.0201624, Final residual = 7.92039e-09, No Iterations 14
DILUPBiCGStab:  Solving for dnp3, Initial residual = 0.0196112, Final residual = 5.36077e-09, No Iterations 14
DILUPBiCGStab:  Solving for dnp4, Initial residual = 0.00146359, Final residual = 9.6252e-09, No Iterations 10
DILUPBiCGStab:  Solving for dnp5, Initial residual = 1.22273e-05, Final residual = 7.51766e-09, No Iterations 3
DILUPBiCGStab:  Solving for dnp6, Initial residual = 1.45296e-05, Final residual = 6.64555e-09, No Iterations 5
DILUPBiCGStab:  Solving for dnp7, Initial residual = 1.45224e-05, Final residual = 4.0886e-09, No Iterations 3
DILUPBiCGStab:  Solving for dnp8, Initial residual = 1.46362e-05, Final residual = 1.59007e-09, No Iterations 2
DILUPBiCGStab:  Solving for T, Initial residual = 0.00706655, Final residual = 7.52885e-07, No Iterations 4
ExecutionTime = 9.29 s  ClockTime = 10 s

Courant Number mean: 4.09553 max: 18.9387
Time = 49

DILUPBiCGStab:  Solving for dnp1, Initial residual = 0.0167603, Final residual = 5.6641e-09, No Iterations 7
DILUPBiCGStab:  Solving for dnp2, Initial residual = 0.0197015, Final residual = 5.45011e-09, No Iterations 14
DILUPBiCGStab:  Solving for dnp3, Initial residual = 0.0189798, Final residual = 5.66103e-09, No Iterations 14
DILUPBiCGStab:  Solving for dnp4, Initial residual = 0.00128672, Final residual = 8.10947e-09, No Iterations 10
DILUPBiCGStab:  Solving for dnp5, Initial residual = 1.23435e-05, Final residual = 8.10597e-09, No Iterations 3
DILUPBiCGStab:  Solving for dnp6, Initial residual = 1.44076e-05, Final residual = 6.47732e-09, No Iterations 5
DILUPBiCGStab:  Solving for dnp7, Initial residual = 1.43998e-05, Final residual = 4.05728e-09, No Iterations 3
DILUPBiCGStab:  Solving for dnp8, Initial residual = 1.45114e-05, Final residual = 1.61524e-09, No Iterations 2
DILUPBiCGStab:  Solving for T, Initial residual = 0.00692945, Final residual = 7.60526e-07, No Iterations 4
ExecutionTime = 9.48 s  ClockTime = 10 s

Courant Number mean: 4.09553 max: 18.9387
Time = 50

DILUPBiCGStab:  Solving for dnp1, Initial residual = 0.0161539, Final residual = 6.51155e-09, No Iterations 7
DILUPBiCGStab:  Solving for dnp2, Initial residual = 0.0192788, Final residual = 3.94383e-09, No Iterations 14
DILUPBiCGStab:  Solving for dnp3, Initial residual = 0.0183717, Final residual = 5.76729e-09, No Iterations 14
DILUPBiCGStab:  Solving for dnp4, Initial residual = 0.00113107, Final residual = 4.84953e-09, No Iterations 11
DILUPBiCGStab:  Solving for dnp5, Initial residual = 1.25451e-05, Final residual = 8.14811e-09, No Iterations 3
DILUPBiCGStab:  Solving for dnp6, Initial residual = 1.42849e-05, Final residual = 6.32293e-09, No Iterations 5
DILUPBiCGStab:  Solving for dnp7, Initial residual = 1.42778e-05, Final residual = 4.02819e-09, No Iterations 3
DILUPBiCGStab:  Solving for dnp8, Initial residual = 1.43884e-05, Final residual = 1.6385e-09, No Iterations 2
DILUPBiCGStab:  Solving for T, Initial residual = 0.00679906, Final residual = 9.94943e-07, No Iterations 4
ExecutionTime = 9.67 s  ClockTime = 10 s

Courant Number mean: 4.09553 max: 18.9387
Time = 51

DILUPBiCGStab:  Solving for dnp1, Initial residual = 0.0155973, Final residual = 7.58608e-09, No Iterations 7
DILUPBiCGStab:  Solving for dnp2, Initial residual = 0.0188815, Final residual = 3.9972e-09, No Iterations 14
DILUPBiCGStab:  Solving for dnp3, Initial residual = 0.0177783, Final residual = 6.4496e-09, No Iterations 14
DILUPBiCGStab:  Solving for dnp4, Initial residual = 0.000994119, Final residual = 7.31201e-09, No Iterations 10
DILUPBiCGStab:  Solving for dnp5, Initial residual = 1.28497e-05, Final residual = 8.17427e-09, No Iterations 3
DILUPBiCGStab:  Solving for dnp6, Initial residual = 1.41643e-05, Final residual = 6.18693e-09, No Iterations 5
DILUPBiCGStab:  Solving for dnp7, Initial residual = 1.41568e-05, Final residual = 4.00339e-09, No Iterations 3
DILUPBiCGStab:  Solving for dnp8, Initial residual = 1.42668e-05, Final residual = 1.65872e-09, No Iterations 2
DILUPBiCGStab:  Solving for T, Initial residual = 0.0066722, Final residual = 6.89621e-07, No Iterations 4
ExecutionTime = 9.86 s  ClockTime = 10 s

Courant Number mean: 4.09553 max: 18.9387
Time = 52

DILUPBiCGStab:  Solving for dnp1, Initial residual = 0.0150832, Final residual = 9.53881e-09, No Iterations 7
DILUPBiCGStab:  Solving for dnp2, Initial residual = 0.0185028, Final residual = 6.40938e-09, No Iterations 14
DILUPBiCGStab:  Solving for dnp3, Initial residual = 0.0171977, Final residual = 8.03173e-09, No Iterations 14
DILUPBiCGStab:  Solving for dnp4, Initial residual = 0.000873632, Final residual = 5.48627e-09, No Iterations 10
DILUPBiCGStab:  Solving for dnp5, Initial residual = 1.31512e-05, Final residual = 8.2126e-09, No Iterations 3
DILUPBiCGStab:  Solving for dnp6, Initial residual = 1.40497e-05, Final residual = 6.07349e-09, No Iterations 5
DILUPBiCGStab:  Solving for dnp7, Initial residual = 1.40416e-05, Final residual = 3.98416e-09, No Iterations 3
DILUPBiCGStab:  Solving for dnp8, Initial residual = 1.41501e-05, Final residual = 1.67505e-09, No Iterations 2
DILUPBiCGStab:  Solving for T, Initial residual = 0.00654705, Final residual = 4.27961e-07, No Iterations 5
ExecutionTime = 10.05 s  ClockTime = 10 s

Courant Number mean: 4.09553 max: 18.9387
Time = 53

DILUPBiCGStab:  Solving for dnp1, Initial residual = 0.0146051, Final residual = 6.62974e-09, No Iterations 8
DILUPBiCGStab:  Solving for dnp2, Initial residual = 0.0181402, Final residual = 5.39017e-10, No Iterations 15
DILUPBiCGStab:  Solving for dnp3, Initial residual = 0.0166301, Final residual = 4.54167e-09, No Iterations 14
DILUPBiCGStab:  Solving for dnp4, Initial residual = 0.000767641, Final residual = 6.89429e-09, No Iterations 10
DILUPBiCGStab:  Solving for dnp5, Initial residual = 1.33721e-05, Final residual = 8.23403e-09, No Iterations 3
DILUPBiCGStab:  Solving for dnp6, Initial residual = 1.39343e-05, Final residual = 5.9808e-09, No Iterations 5
DILUPBiCGStab:  Solving for dnp7, Initial residual = 1.39243e-05, Final residual = 3.97077e-09, No Iterations 3
DILUPBiCGStab:  Solving for dnp8, Initial residual = 1.40312e-05, Final residual = 1.68759e-09, No Iterations 2
DILUPBiCGStab:  Solving for T, Initial residual = 0.0064237, Final residual = 3.89572e-07, No Iterations 5
ExecutionTime = 10.24 s  ClockTime = 11 s

Courant Number mean: 4.09553 max: 18.9387
Time = 54

DILUPBiCGStab:  Solving for dnp1, Initial residual = 0.0141479, Final residual = 9.8162e-09, No Iterations 7
DILUPBiCGStab:  Solving for dnp2, Initial residual = 0.0177903, Final residual = 4.75972e-10, No Iterations 15
DILUPBiCGStab:  Solving for dnp3, Initial residual = 0.0160755, Final residual = 6.83474e-09, No Iterations 14
DILUPBiCGStab:  Solving for dnp4, Initial residual = 0.000674412, Final residual = 6.04051e-09, No Iterations 10
DILUPBiCGStab:  Solving for dnp5, Initial residual = 1.35269e-05, Final residual = 8.25046e-09, No Iterations 3
DILUPBiCGStab:  Solving for dnp6, Initial residual = 1.38223e-05, Final residual = 5.91028e-09, No Iterations 5
DILUPBiCGStab:  Solving for dnp7, Initial residual = 1.38123e-05, Final residual = 3.96377e-09, No Iterations 3
DILUPBiCGStab:  Solving for dnp8, Initial residual = 1.3918e-05, Final residual = 1.69815e-09, No Iterations 2
DILUPBiCGStab:  Solving for T, Initial residual = 0.00630681, Final residual = 8.87512e-07, No Iterations 4
ExecutionTime = 10.43 s  ClockTime = 11 s

Courant Number mean: 4.09553 max: 18.9387
Time = 55

DILUPBiCGStab:  Solving for dnp1, Initial residual = 0.013748, Final residual = 7.98698e-09, No Iterations 7
DILUPBiCGStab:  Solving for dnp2, Initial residual = 0.0174467, Final residual = 4.30895e-10, No Iterations 15
DILUPBiCGStab:  Solving for dnp3, Initial residual = 0.0155335, Final residual = 8.80162e-09, No Iterations 14
DILUPBiCGStab:  Solving for dnp4, Initial residual = 0.000592414, Final residual = 4.03173e-09, No Iterations 10
DILUPBiCGStab:  Solving for dnp5, Initial residual = 1.36238e-05, Final residual = 8.2596e-09, No Iterations 3
DILUPBiCGStab:  Solving for dnp6, Initial residual = 1.37149e-05, Final residual = 5.85857e-09, No Iterations 5
DILUPBiCGStab:  Solving for dnp7, Initial residual = 1.37064e-05, Final residual = 3.96249e-09, No Iterations 3
DILUPBiCGStab:  Solving for dnp8, Initial residual = 1.38116e-05, Final residual = 1.70599e-09, No Iterations 2
DILUPBiCGStab:  Solving for T, Initial residual = 0.0061942, Final residual = 5.94405e-07, No Iterations 4
ExecutionTime = 10.62 s  ClockTime = 11 s

Courant Number mean: 4.09553 max: 18.9387
Time = 56

DILUPBiCGStab:  Solving for dnp1, Initial residual = 0.0133872, Final residual = 7.52939e-09, No Iterations 7
DILUPBiCGStab:  Solving for dnp2, Initial residual = 0.0171059, Final residual = 4.23294e-10, No Iterations 15
DILUPBiCGStab:  Solving for dnp3, Initial residual = 0.0150043, Final residual = 3.29497e-10, No Iterations 15
DILUPBiCGStab:  Solving for dnp4, Initial residual = 0.000520298, Final residual = 5.07373e-09, No Iterations 10
DILUPBiCGStab:  Solving for dnp5, Initial residual = 1.3677e-05, Final residual = 8.25941e-09, No Iterations 3
DILUPBiCGStab:  Solving for dnp6, Initial residual = 1.36064e-05, Final residual = 5.82702e-09, No Iterations 5
DILUPBiCGStab:  Solving for dnp7, Initial residual = 1.35964e-05, Final residual = 3.96668e-09, No Iterations 3
DILUPBiCGStab:  Solving for dnp8, Initial residual = 1.37007e-05, Final residual = 1.71205e-09, No Iterations 2
DILUPBiCGStab:  Solving for T, Initial residual = 0.00608204, Final residual = 5.06941e-07, No Iterations 4
ExecutionTime = 10.8 s  ClockTime = 11 s

Courant Number mean: 4.09553 max: 18.9387
Time = 57

DILUPBiCGStab:  Solving for dnp1, Initial residual = 0.0130527, Final residual = 8.22316e-09, No Iterations 7
DILUPBiCGStab:  Solving for dnp2, Initial residual = 0.0167676, Final residual = 5.13018e-10, No Iterations 15
DILUPBiCGStab:  Solving for dnp3, Initial residual = 0.014488, Final residual = 3.84811e-10, No Iterations 15
DILUPBiCGStab:  Solving for dnp4, Initial residual = 0.000456878, Final residual = 9.63305e-09, No Iterations 10
DILUPBiCGStab:  Solving for dnp5, Initial residual = 1.36953e-05, Final residual = 8.25413e-09, No Iterations 3
DILUPBiCGStab:  Solving for dnp6, Initial residual = 1.3504e-05, Final residual = 5.81169e-09, No Iterations 5
DILUPBiCGStab:  Solving for dnp7, Initial residual = 1.34944e-05, Final residual = 3.97438e-09, No Iterations 3
DILUPBiCGStab:  Solving for dnp8, Initial residual = 1.35984e-05, Final residual = 1.716e-09, No Iterations 2
DILUPBiCGStab:  Solving for T, Initial residual = 0.00597366, Final residual = 4.60059e-07, No Iterations 4
ExecutionTime = 10.99 s  ClockTime = 11 s

Courant Number mean: 4.09553 max: 18.9387
Time = 58

DILUPBiCGStab:  Solving for dnp1, Initial residual = 0.0127592, Final residual = 2.67174e-09, No Iterations 9
DILUPBiCGStab:  Solving for dnp2, Initial residual = 0.0164325, Final residual = 4.44087e-10, No Iterations 15
DILUPBiCGStab:  Solving for dnp3, Initial residual = 0.0139845, Final residual = 3.73898e-10, No Iterations 15
DILUPBiCGStab:  Solving for dnp4, Initial residual = 0.000401108, Final residual = 8.67491e-09, No Iterations 10
DILUPBiCGStab:  Solving for dnp5, Initial residual = 1.36894e-05, Final residual = 8.24579e-09, No Iterations 3
DILUPBiCGStab:  Solving for dnp6, Initial residual = 1.34043e-05, Final residual = 5.80957e-09, No Iterations 5
DILUPBiCGStab:  Solving for dnp7, Initial residual = 1.33942e-05, Final residual = 3.98374e-09, No Iterations 3
DILUPBiCGStab:  Solving for dnp8, Initial residual = 1.34966e-05, Final residual = 1.71812e-09, No Iterations 2
DILUPBiCGStab:  Solving for T, Initial residual = 0.00586717, Final residual = 4.29229e-07, No Iterations 4
ExecutionTime = 11.18 s  ClockTime = 12 s

Courant Number mean: 4.09553 max: 18.9387
Time = 59

DILUPBiCGStab:  Solving for dnp1, Initial residual = 0.0125039, Final residual = 7.69645e-09, No Iterations 8
DILUPBiCGStab:  Solving for dnp2, Initial residual = 0.0161004, Final residual = 4.58162e-10, No Iterations 15
DILUPBiCGStab:  Solving for dnp3, Initial residual = 0.013494, Final residual = 3.18482e-10, No Iterations 15
DILUPBiCGStab:  Solving for dnp4, Initial residual = 0.000352067, Final residual = 8.4865e-09, No Iterations 10
DILUPBiCGStab:  Solving for dnp5, Initial residual = 1.36631e-05, Final residual = 8.23396e-09, No Iterations 3
DILUPBiCGStab:  Solving for dnp6, Initial residual = 1.33068e-05, Final residual = 5.81866e-09, No Iterations 5
DILUPBiCGStab:  Solving for dnp7, Initial residual = 1.3296e-05, Final residual = 3.99389e-09, No Iterations 3
DILUPBiCGStab:  Solving for dnp8, Initial residual = 1.3397e-05, Final residual = 1.71877e-09, No Iterations 2
DILUPBiCGStab:  Solving for T, Initial residual = 0.00576536, Final residual = 4.07026e-07, No Iterations 4
ExecutionTime = 11.35 s  ClockTime = 12 s

Courant Number mean: 4.09553 max: 18.9387
Time = 60

DILUPBiCGStab:  Solving for dnp1, Initial residual = 0.0122867, Final residual = 3.83817e-09, No Iterations 8
DILUPBiCGStab:  Solving for dnp2, Initial residual = 0.0157714, Final residual = 4.73782e-10, No Iterations 15
DILUPBiCGStab:  Solving for dnp3, Initial residual = 0.0130163, Final residual = 8.91133e-09, No Iterations 14
DILUPBiCGStab:  Solving for dnp4, Initial residual = 0.000308945, Final residual = 7.77736e-09, No Iterations 10
DILUPBiCGStab:  Solving for dnp5, Initial residual = 1.36219e-05, Final residual = 8.21894e-09, No Iterations 3
DILUPBiCGStab:  Solving for dnp6, Initial residual = 1.32099e-05, Final residual = 5.83581e-09, No Iterations 5
DILUPBiCGStab:  Solving for dnp7, Initial residual = 1.31997e-05, Final residual = 4.00406e-09, No Iterations 3
DILUPBiCGStab:  Solving for dnp8, Initial residual = 1.3301e-05, Final residual = 1.71817e-09, No Iterations 2
DILUPBiCGStab:  Solving for T, Initial residual = 0.00566742, Final residual = 3.90107e-07, No Iterations 4
ExecutionTime = 11.54 s  ClockTime = 12 s

Courant Number mean: 4.09553 max: 18.9387
Time = 61

DILUPBiCGStab:  Solving for dnp1, Initial residual = 0.0121068, Final residual = 6.86256e-09, No Iterations 8
DILUPBiCGStab:  Solving for dnp2, Initial residual = 0.0154458, Final residual = 6.20318e-10, No Iterations 15
DILUPBiCGStab:  Solving for dnp3, Initial residual = 0.0125513, Final residual = 9.03651e-09, No Iterations 14
DILUPBiCGStab:  Solving for dnp4, Initial residual = 0.000271028, Final residual = 6.3531e-09, No Iterations 10
DILUPBiCGStab:  Solving for dnp5, Initial residual = 1.35693e-05, Final residual = 8.20396e-09, No Iterations 3
DILUPBiCGStab:  Solving for dnp6, Initial residual = 1.31185e-05, Final residual = 5.85915e-09, No Iterations 5
DILUPBiCGStab:  Solving for dnp7, Initial residual = 1.31086e-05, Final residual = 4.01295e-09, No Iterations 3
DILUPBiCGStab:  Solving for dnp8, Initial residual = 1.32091e-05, Final residual = 1.71657e-09, No Iterations 2
DILUPBiCGStab:  Solving for T, Initial residual = 0.00557136, Final residual = 3.76869e-07, No Iterations 4
ExecutionTime = 11.77 s  ClockTime = 12 s

Courant Number mean: 4.09553 max: 18.9387
Time = 62

DILUPBiCGStab:  Solving for dnp1, Initial residual = 0.0119503, Final residual = 5.64983e-09, No Iterations 8
DILUPBiCGStab:  Solving for dnp2, Initial residual = 0.0151236, Final residual = 5.32317e-10, No Iterations 15
DILUPBiCGStab:  Solving for dnp3, Initial residual = 0.0120991, Final residual = 6.89363e-09, No Iterations 14
DILUPBiCGStab:  Solving for dnp4, Initial residual = 0.000237689, Final residual = 6.75461e-09, No Iterations 10
DILUPBiCGStab:  Solving for dnp5, Initial residual = 1.35113e-05, Final residual = 8.18843e-09, No Iterations 3
DILUPBiCGStab:  Solving for dnp6, Initial residual = 1.30282e-05, Final residual = 5.88627e-09, No Iterations 5
DILUPBiCGStab:  Solving for dnp7, Initial residual = 1.30169e-05, Final residual = 4.02015e-09, No Iterations 3
DILUPBiCGStab:  Solving for dnp8, Initial residual = 1.3116e-05, Final residual = 1.71411e-09, No Iterations 2
DILUPBiCGStab:  Solving for T, Initial residual = 0.00547556, Final residual = 9.78796e-07, No Iterations 4
ExecutionTime = 11.99 s  ClockTime = 12 s

Courant Number mean: 4.09553 max: 18.9387
Time = 63

DILUPBiCGStab:  Solving for dnp1, Initial residual = 0.0118153, Final residual = 5.16591e-09, No Iterations 8
DILUPBiCGStab:  Solving for dnp2, Initial residual = 0.0148048, Final residual = 5.15928e-10, No Iterations 15
DILUPBiCGStab:  Solving for dnp3, Initial residual = 0.0116597, Final residual = 6.44466e-09, No Iterations 14
DILUPBiCGStab:  Solving for dnp4, Initial residual = 0.000208375, Final residual = 5.4246e-09, No Iterations 10
DILUPBiCGStab:  Solving for dnp5, Initial residual = 1.34456e-05, Final residual = 8.17234e-09, No Iterations 3
DILUPBiCGStab:  Solving for dnp6, Initial residual = 1.29407e-05, Final residual = 5.91745e-09, No Iterations 5
DILUPBiCGStab:  Solving for dnp7, Initial residual = 1.29273e-05, Final residual = 4.0261e-09, No Iterations 3
DILUPBiCGStab:  Solving for dnp8, Initial residual = 1.3025e-05, Final residual = 1.71101e-09, No Iterations 2
DILUPBiCGStab:  Solving for T, Initial residual = 0.00538262, Final residual = 9.47025e-07, No Iterations 4
ExecutionTime = 12.25 s  ClockTime = 13 s

Courant Number mean: 4.09553 max: 18.9387
Time = 64

DILUPBiCGStab:  Solving for dnp1, Initial residual = 0.0116912, Final residual = 4.88123e-09, No Iterations 8
DILUPBiCGStab:  Solving for dnp2, Initial residual = 0.0144899, Final residual = 5.38027e-10, No Iterations 15
DILUPBiCGStab:  Solving for dnp3, Initial residual = 0.0112329, Final residual = 3.53732e-10, No Iterations 15
DILUPBiCGStab:  Solving for dnp4, Initial residual = 0.000182601, Final residual = 4.5891e-09, No Iterations 10
DILUPBiCGStab:  Solving for dnp5, Initial residual = 1.33756e-05, Final residual = 8.15354e-09, No Iterations 3
DILUPBiCGStab:  Solving for dnp6, Initial residual = 1.28537e-05, Final residual = 5.94927e-09, No Iterations 5
DILUPBiCGStab:  Solving for dnp7, Initial residual = 1.2842e-05, Final residual = 4.0297e-09, No Iterations 3
DILUPBiCGStab:  Solving for dnp8, Initial residual = 1.29399e-05, Final residual = 1.70718e-09, No Iterations 2
DILUPBiCGStab:  Solving for T, Initial residual = 0.00529571, Final residual = 9.20933e-07, No Iterations 4
ExecutionTime = 12.42 s  ClockTime = 13 s

Courant Number mean: 4.09553 max: 18.9387
Time = 65

DILUPBiCGStab:  Solving for dnp1, Initial residual = 0.0115732, Final residual = 9.15733e-09, No Iterations 7
DILUPBiCGStab:  Solving for dnp2, Initial residual = 0.0141788, Final residual = 8.6768e-09, No Iterations 14
DILUPBiCGStab:  Solving for dnp3, Initial residual = 0.0108187, Final residual = 5.10956e-09, No Iterations 14
DILUPBiCGStab:  Solving for dnp4, Initial residual = 0.00015994, Final residual = 3.701e-09, No Iterations 10
DILUPBiCGStab:  Solving for dnp5, Initial residual = 1.33053e-05, Final residual = 8.13861e-09, No Iterations 3
DILUPBiCGStab:  Solving for dnp6, Initial residual = 1.27717e-05, Final residual = 5.98145e-09, No Iterations 5
DILUPBiCGStab:  Solving for dnp7, Initial residual = 1.27592e-05, Final residual = 4.03119e-09, No Iterations 3
DILUPBiCGStab:  Solving for dnp8, Initial residual = 1.28558e-05, Final residual = 1.70283e-09, No Iterations 2
DILUPBiCGStab:  Solving for T, Initial residual = 0.00520989, Final residual = 9.01792e-07, No Iterations 4
ExecutionTime = 12.68 s  ClockTime = 13 s

Courant Number mean: 4.09553 max: 18.9387
Time = 66

DILUPBiCGStab:  Solving for dnp1, Initial residual = 0.0114556, Final residual = 8.07998e-09, No Iterations 7
DILUPBiCGStab:  Solving for dnp2, Initial residual = 0.0138716, Final residual = 8.11347e-09, No Iterations 14
DILUPBiCGStab:  Solving for dnp3, Initial residual = 0.010417, Final residual = 7.65183e-09, No Iterations 13
DILUPBiCGStab:  Solving for dnp4, Initial residual = 0.000140015, Final residual = 3.5503e-09, No Iterations 10
DILUPBiCGStab:  Solving for dnp5, Initial residual = 1.32319e-05, Final residual = 8.12426e-09, No Iterations 3
DILUPBiCGStab:  Solving for dnp6, Initial residual = 1.26889e-05, Final residual = 6.01534e-09, No Iterations 5
DILUPBiCGStab:  Solving for dnp7, Initial residual = 1.26747e-05, Final residual = 4.03093e-09, No Iterations 3
DILUPBiCGStab:  Solving for dnp8, Initial residual = 1.27702e-05, Final residual = 1.69809e-09, No Iterations 2
DILUPBiCGStab:  Solving for T, Initial residual = 0.00512498, Final residual = 8.86419e-07, No Iterations 4
ExecutionTime = 12.86 s  ClockTime = 13 s

Courant Number mean: 4.09553 max: 18.9387
Time = 67

DILUPBiCGStab:  Solving for dnp1, Initial residual = 0.0113381, Final residual = 7.40845e-09, No Iterations 7
DILUPBiCGStab:  Solving for dnp2, Initial residual = 0.0135685, Final residual = 7.22696e-09, No Iterations 14
DILUPBiCGStab:  Solving for dnp3, Initial residual = 0.0100276, Final residual = 7.78119e-09, No Iterations 14
DILUPBiCGStab:  Solving for dnp4, Initial residual = 0.000122497, Final residual = 2.86925e-09, No Iterations 10
DILUPBiCGStab:  Solving for dnp5, Initial residual = 1.31557e-05, Final residual = 8.10925e-09, No Iterations 3
DILUPBiCGStab:  Solving for dnp6, Initial residual = 1.26087e-05, Final residual = 6.05007e-09, No Iterations 5
DILUPBiCGStab:  Solving for dnp7, Initial residual = 1.25939e-05, Final residual = 4.02962e-09, No Iterations 3
DILUPBiCGStab:  Solving for dnp8, Initial residual = 1.26887e-05, Final residual = 1.69296e-09, No Iterations 2
DILUPBiCGStab:  Solving for T, Initial residual = 0.00504288, Final residual = 8.72796e-07, No Iterations 4
ExecutionTime = 13.08 s  ClockTime = 13 s

Courant Number mean: 4.09553 max: 18.9387
Time = 68

DILUPBiCGStab:  Solving for dnp1, Initial residual = 0.0112209, Final residual = 7.01815e-09, No Iterations 7
DILUPBiCGStab:  Solving for dnp2, Initial residual = 0.0132696, Final residual = 6.92664e-09, No Iterations 14
DILUPBiCGStab:  Solving for dnp3, Initial residual = 0.0096503, Final residual = 6.92762e-09, No Iterations 14
DILUPBiCGStab:  Solving for dnp4, Initial residual = 0.000107095, Final residual = 2.82241e-09, No Iterations 10
DILUPBiCGStab:  Solving for dnp5, Initial residual = 1.30825e-05, Final residual = 8.09473e-09, No Iterations 3
DILUPBiCGStab:  Solving for dnp6, Initial residual = 1.25301e-05, Final residual = 6.08551e-09, No Iterations 5
DILUPBiCGStab:  Solving for dnp7, Initial residual = 1.25146e-05, Final residual = 4.02773e-09, No Iterations 3
DILUPBiCGStab:  Solving for dnp8, Initial residual = 1.26087e-05, Final residual = 1.68742e-09, No Iterations 2
DILUPBiCGStab:  Solving for T, Initial residual = 0.00496218, Final residual = 8.60133e-07, No Iterations 4
ExecutionTime = 13.27 s  ClockTime = 14 s

Courant Number mean: 4.09553 max: 18.9387
Time = 69

DILUPBiCGStab:  Solving for dnp1, Initial residual = 0.0111042, Final residual = 6.77819e-09, No Iterations 7
DILUPBiCGStab:  Solving for dnp2, Initial residual = 0.0129752, Final residual = 5.60539e-09, No Iterations 14
DILUPBiCGStab:  Solving for dnp3, Initial residual = 0.00928494, Final residual = 6.65464e-09, No Iterations 14
DILUPBiCGStab:  Solving for dnp4, Initial residual = 9.35526e-05, Final residual = 2.24013e-09, No Iterations 10
DILUPBiCGStab:  Solving for dnp5, Initial residual = 1.30088e-05, Final residual = 8.08012e-09, No Iterations 3
DILUPBiCGStab:  Solving for dnp6, Initial residual = 1.24543e-05, Final residual = 6.1216e-09, No Iterations 5
DILUPBiCGStab:  Solving for dnp7, Initial residual = 1.24378e-05, Final residual = 4.02528e-09, No Iterations 3
DILUPBiCGStab:  Solving for dnp8, Initial residual = 1.25307e-05, Final residual = 1.68147e-09, No Iterations 2
DILUPBiCGStab:  Solving for T, Initial residual = 0.0048846, Final residual = 8.48238e-07, No Iterations 4
ExecutionTime = 13.47 s  ClockTime = 14 s

Courant Number mean: 4.09553 max: 18.9387
Time = 70

DILUPBiCGStab:  Solving for dnp1, Initial residual = 0.0109877, Final residual = 6.62465e-09, No Iterations 7
DILUPBiCGStab:  Solving for dnp2, Initial residual = 0.0126851, Final residual = 6.06819e-09, No Iterations 14
DILUPBiCGStab:  Solving for dnp3, Initial residual = 0.00893129, Final residual = 6.42083e-09, No Iterations 14
DILUPBiCGStab:  Solving for dnp4, Initial residual = 8.16456e-05, Final residual = 2.14527e-09, No Iterations 10
DILUPBiCGStab:  Solving for dnp5, Initial residual = 1.29348e-05, Final residual = 8.06541e-09, No Iterations 3
DILUPBiCGStab:  Solving for dnp6, Initial residual = 1.23788e-05, Final residual = 6.15849e-09, No Iterations 5
DILUPBiCGStab:  Solving for dnp7, Initial residual = 1.23613e-05, Final residual = 4.0223e-09, No Iterations 3
DILUPBiCGStab:  Solving for dnp8, Initial residual = 1.24532e-05, Final residual = 1.67506e-09, No Iterations 2
DILUPBiCGStab:  Solving for T, Initial residual = 0.0048093, Final residual = 8.3687e-07, No Iterations 4
ExecutionTime = 13.67 s  ClockTime = 14 s

Courant Number mean: 4.09553 max: 18.9387
Time = 71

DILUPBiCGStab:  Solving for dnp1, Initial residual = 0.0108719, Final residual = 6.53121e-09, No Iterations 7
DILUPBiCGStab:  Solving for dnp2, Initial residual = 0.0123996, Final residual = 6.11764e-09, No Iterations 14
DILUPBiCGStab:  Solving for dnp3, Initial residual = 0.00858921, Final residual = 5.96144e-09, No Iterations 14
DILUPBiCGStab:  Solving for dnp4, Initial residual = 7.11764e-05, Final residual = 1.95238e-09, No Iterations 10
DILUPBiCGStab:  Solving for dnp5, Initial residual = 1.28605e-05, Final residual = 8.05066e-09, No Iterations 3
DILUPBiCGStab:  Solving for dnp6, Initial residual = 1.23034e-05, Final residual = 6.1959e-09, No Iterations 5
DILUPBiCGStab:  Solving for dnp7, Initial residual = 1.22853e-05, Final residual = 4.01908e-09, No Iterations 3
DILUPBiCGStab:  Solving for dnp8, Initial residual = 1.23765e-05, Final residual = 1.66821e-09, No Iterations 2
DILUPBiCGStab:  Solving for T, Initial residual = 0.00473593, Final residual = 8.25882e-07, No Iterations 4
[...]
DILUPBiCGStab:  Solving for T, Initial residual = 0.00022058, Final residual = 7.16001e-07, No Iterations 2
ExecutionTime = 107.9 s  ClockTime = 109 s

Courant Number mean: 4.09553 max: 18.9387
Time = 583

DILUPBiCGStab:  Solving for dnp1, Initial residual = 1.43932e-05, Final residual = 5.68644e-09, No Iterations 4
DILUPBiCGStab:  Solving for dnp2, Initial residual = 1.78504e-06, Final residual = 7.45707e-09, No Iterations 7
DILUPBiCGStab:  Solving for dnp3, Initial residual = 1.78412e-06, Final residual = 6.82215e-09, No Iterations 7
DILUPBiCGStab:  Solving for dnp4, Initial residual = 1.68886e-06, Final residual = 6.17829e-09, No Iterations 6
DILUPBiCGStab:  Solving for dnp5, Initial residual = 1.54465e-06, Final residual = 4.62539e-09, No Iterations 2
DILUPBiCGStab:  Solving for dnp6, Initial residual = 1.47117e-06, Final residual = 9.66974e-09, No Iterations 4
DILUPBiCGStab:  Solving for dnp7, Initial residual = 1.4685e-06, Final residual = 5.85989e-09, No Iterations 2
DILUPBiCGStab:  Solving for dnp8, Initial residual = 1.47256e-06, Final residual = 2.09829e-09, No Iterations 2
DILUPBiCGStab:  Solving for T, Initial residual = 0.000219864, Final residual = 7.13571e-07, No Iterations 2
ExecutionTime = 108.09 s  ClockTime = 109 s

Courant Number mean: 4.09553 max: 18.9387
Time = 584

DILUPBiCGStab:  Solving for dnp1, Initial residual = 1.41765e-05, Final residual = 5.60005e-09, No Iterations 4
DILUPBiCGStab:  Solving for dnp2, Initial residual = 1.77956e-06, Final residual = 7.43422e-09, No Iterations 7
DILUPBiCGStab:  Solving for dnp3, Initial residual = 1.77861e-06, Final residual = 6.80103e-09, No Iterations 7
DILUPBiCGStab:  Solving for dnp4, Initial residual = 1.68376e-06, Final residual = 6.15988e-09, No Iterations 6
DILUPBiCGStab:  Solving for dnp5, Initial residual = 1.54002e-06, Final residual = 4.61128e-09, No Iterations 2
DILUPBiCGStab:  Solving for dnp6, Initial residual = 1.46677e-06, Final residual = 9.64091e-09, No Iterations 4
DILUPBiCGStab:  Solving for dnp7, Initial residual = 1.46413e-06, Final residual = 5.84225e-09, No Iterations 2
DILUPBiCGStab:  Solving for dnp8, Initial residual = 1.46819e-06, Final residual = 2.09201e-09, No Iterations 2
DILUPBiCGStab:  Solving for T, Initial residual = 0.00021915, Final residual = 7.11151e-07, No Iterations 2
ExecutionTime = 108.26 s  ClockTime = 110 s

Courant Number mean: 4.09553 max: 18.9387
Time = 585

DILUPBiCGStab:  Solving for dnp1, Initial residual = 1.39628e-05, Final residual = 5.51489e-09, No Iterations 4
DILUPBiCGStab:  Solving for dnp2, Initial residual = 1.7741e-06, Final residual = 7.41146e-09, No Iterations 7
DILUPBiCGStab:  Solving for dnp3, Initial residual = 1.77313e-06, Final residual = 6.78001e-09, No Iterations 7
DILUPBiCGStab:  Solving for dnp4, Initial residual = 1.67868e-06, Final residual = 6.14154e-09, No Iterations 6
DILUPBiCGStab:  Solving for dnp5, Initial residual = 1.5354e-06, Final residual = 4.59723e-09, No Iterations 2
DILUPBiCGStab:  Solving for dnp6, Initial residual = 1.4624e-06, Final residual = 9.61224e-09, No Iterations 4
DILUPBiCGStab:  Solving for dnp7, Initial residual = 1.45978e-06, Final residual = 5.82469e-09, No Iterations 2
DILUPBiCGStab:  Solving for dnp8, Initial residual = 1.46384e-06, Final residual = 2.08575e-09, No Iterations 2
DILUPBiCGStab:  Solving for T, Initial residual = 0.000218439, Final residual = 7.08743e-07, No Iterations 2
ExecutionTime = 108.44 s  ClockTime = 110 s

Courant Number mean: 4.09553 max: 18.9387
Time = 586

DILUPBiCGStab:  Solving for dnp1, Initial residual = 1.37522e-05, Final residual = 5.43095e-09, No Iterations 4
DILUPBiCGStab:  Solving for dnp2, Initial residual = 1.76866e-06, Final residual = 7.38877e-09, No Iterations 7
DILUPBiCGStab:  Solving for dnp3, Initial residual = 1.76767e-06, Final residual = 6.75907e-09, No Iterations 7
DILUPBiCGStab:  Solving for dnp4, Initial residual = 1.67362e-06, Final residual = 6.12327e-09, No Iterations 6
DILUPBiCGStab:  Solving for dnp5, Initial residual = 1.53081e-06, Final residual = 4.58324e-09, No Iterations 2
DILUPBiCGStab:  Solving for dnp6, Initial residual = 1.45804e-06, Final residual = 9.58371e-09, No Iterations 4
DILUPBiCGStab:  Solving for dnp7, Initial residual = 1.45545e-06, Final residual = 5.8072e-09, No Iterations 2
DILUPBiCGStab:  Solving for dnp8, Initial residual = 1.4595e-06, Final residual = 2.07952e-09, No Iterations 2
DILUPBiCGStab:  Solving for T, Initial residual = 0.000217731, Final residual = 7.06346e-07, No Iterations 2
ExecutionTime = 108.62 s  ClockTime = 110 s

Courant Number mean: 4.09553 max: 18.9387
Time = 587

DILUPBiCGStab:  Solving for dnp1, Initial residual = 1.35445e-05, Final residual = 5.3482e-09, No Iterations 4
DILUPBiCGStab:  Solving for dnp2, Initial residual = 1.76324e-06, Final residual = 7.36617e-09, No Iterations 7
DILUPBiCGStab:  Solving for dnp3, Initial residual = 1.76223e-06, Final residual = 6.73821e-09, No Iterations 7
DILUPBiCGStab:  Solving for dnp4, Initial residual = 1.66859e-06, Final residual = 6.10508e-09, No Iterations 6
DILUPBiCGStab:  Solving for dnp5, Initial residual = 1.52623e-06, Final residual = 4.56929e-09, No Iterations 2
DILUPBiCGStab:  Solving for dnp6, Initial residual = 1.45371e-06, Final residual = 9.55531e-09, No Iterations 4
DILUPBiCGStab:  Solving for dnp7, Initial residual = 1.45113e-06, Final residual = 5.78977e-09, No Iterations 2
DILUPBiCGStab:  Solving for dnp8, Initial residual = 1.45518e-06, Final residual = 2.07331e-09, No Iterations 2
DILUPBiCGStab:  Solving for T, Initial residual = 0.000217026, Final residual = 7.0396e-07, No Iterations 2
ExecutionTime = 108.81 s  ClockTime = 110 s

Courant Number mean: 4.09553 max: 18.9387
Time = 588

DILUPBiCGStab:  Solving for dnp1, Initial residual = 1.33397e-05, Final residual = 5.26664e-09, No Iterations 4
DILUPBiCGStab:  Solving for dnp2, Initial residual = 1.75784e-06, Final residual = 7.34365e-09, No Iterations 7
DILUPBiCGStab:  Solving for dnp3, Initial residual = 1.75682e-06, Final residual = 6.71744e-09, No Iterations 7
DILUPBiCGStab:  Solving for dnp4, Initial residual = 1.66357e-06, Final residual = 6.08696e-09, No Iterations 6
DILUPBiCGStab:  Solving for dnp5, Initial residual = 1.52168e-06, Final residual = 4.55541e-09, No Iterations 2
DILUPBiCGStab:  Solving for dnp6, Initial residual = 1.44939e-06, Final residual = 9.52703e-09, No Iterations 4
DILUPBiCGStab:  Solving for dnp7, Initial residual = 1.44684e-06, Final residual = 5.77242e-09, No Iterations 2
DILUPBiCGStab:  Solving for dnp8, Initial residual = 1.45088e-06, Final residual = 2.06713e-09, No Iterations 2
DILUPBiCGStab:  Solving for T, Initial residual = 0.000216325, Final residual = 7.01586e-07, No Iterations 2
ExecutionTime = 108.98 s  ClockTime = 110 s

Courant Number mean: 4.09553 max: 18.9387
Time = 589

DILUPBiCGStab:  Solving for dnp1, Initial residual = 1.31378e-05, Final residual = 5.18624e-09, No Iterations 4
DILUPBiCGStab:  Solving for dnp2, Initial residual = 1.75246e-06, Final residual = 7.32121e-09, No Iterations 7
DILUPBiCGStab:  Solving for dnp3, Initial residual = 1.75143e-06, Final residual = 6.69676e-09, No Iterations 7
DILUPBiCGStab:  Solving for dnp4, Initial residual = 1.65857e-06, Final residual = 6.06892e-09, No Iterations 6
DILUPBiCGStab:  Solving for dnp5, Initial residual = 1.51714e-06, Final residual = 4.54157e-09, No Iterations 2
DILUPBiCGStab:  Solving for dnp6, Initial residual = 1.44509e-06, Final residual = 9.49887e-09, No Iterations 4
DILUPBiCGStab:  Solving for dnp7, Initial residual = 1.44256e-06, Final residual = 5.75513e-09, No Iterations 2
DILUPBiCGStab:  Solving for dnp8, Initial residual = 1.4466e-06, Final residual = 2.06098e-09, No Iterations 2
DILUPBiCGStab:  Solving for T, Initial residual = 0.000215629, Final residual = 6.99223e-07, No Iterations 2
ExecutionTime = 109.18 s  ClockTime = 111 s

Courant Number mean: 4.09553 max: 18.9387
Time = 590

DILUPBiCGStab:  Solving for dnp1, Initial residual = 1.29388e-05, Final residual = 5.107e-09, No Iterations 4
DILUPBiCGStab:  Solving for dnp2, Initial residual = 1.74711e-06, Final residual = 7.29885e-09, No Iterations 7
DILUPBiCGStab:  Solving for dnp3, Initial residual = 1.74606e-06, Final residual = 6.67616e-09, No Iterations 7
DILUPBiCGStab:  Solving for dnp4, Initial residual = 1.6536e-06, Final residual = 6.05095e-09, No Iterations 6
DILUPBiCGStab:  Solving for dnp5, Initial residual = 1.51262e-06, Final residual = 4.52779e-09, No Iterations 2
DILUPBiCGStab:  Solving for dnp6, Initial residual = 1.4408e-06, Final residual = 9.47082e-09, No Iterations 4
DILUPBiCGStab:  Solving for dnp7, Initial residual = 1.43829e-06, Final residual = 5.73792e-09, No Iterations 2
DILUPBiCGStab:  Solving for dnp8, Initial residual = 1.44233e-06, Final residual = 2.05485e-09, No Iterations 2
DILUPBiCGStab:  Solving for T, Initial residual = 0.000214935, Final residual = 6.9687e-07, No Iterations 2
ExecutionTime = 109.35 s  ClockTime = 111 s

Courant Number mean: 4.09553 max: 18.9387
Time = 591

DILUPBiCGStab:  Solving for dnp1, Initial residual = 1.27425e-05, Final residual = 5.02888e-09, No Iterations 4
DILUPBiCGStab:  Solving for dnp2, Initial residual = 1.74177e-06, Final residual = 7.27657e-09, No Iterations 7
DILUPBiCGStab:  Solving for dnp3, Initial residual = 1.74071e-06, Final residual = 6.65564e-09, No Iterations 7
DILUPBiCGStab:  Solving for dnp4, Initial residual = 1.64864e-06, Final residual = 6.03305e-09, No Iterations 6
DILUPBiCGStab:  Solving for dnp5, Initial residual = 1.50812e-06, Final residual = 4.51407e-09, No Iterations 2
DILUPBiCGStab:  Solving for dnp6, Initial residual = 1.43654e-06, Final residual = 9.44289e-09, No Iterations 4
DILUPBiCGStab:  Solving for dnp7, Initial residual = 1.43405e-06, Final residual = 5.72077e-09, No Iterations 2
DILUPBiCGStab:  Solving for dnp8, Initial residual = 1.43808e-06, Final residual = 2.04874e-09, No Iterations 2
DILUPBiCGStab:  Solving for T, Initial residual = 0.000214244, Final residual = 6.94529e-07, No Iterations 2
ExecutionTime = 109.53 s  ClockTime = 111 s

Courant Number mean: 4.09553 max: 18.9387
Time = 592

DILUPBiCGStab:  Solving for dnp1, Initial residual = 1.25491e-05, Final residual = 4.95189e-09, No Iterations 4
DILUPBiCGStab:  Solving for dnp2, Initial residual = 1.73645e-06, Final residual = 7.25437e-09, No Iterations 7
DILUPBiCGStab:  Solving for dnp3, Initial residual = 1.73538e-06, Final residual = 6.63521e-09, No Iterations 7
DILUPBiCGStab:  Solving for dnp4, Initial residual = 1.64371e-06, Final residual = 6.01523e-09, No Iterations 6
DILUPBiCGStab:  Solving for dnp5, Initial residual = 1.50364e-06, Final residual = 4.5004e-09, No Iterations 2
DILUPBiCGStab:  Solving for dnp6, Initial residual = 1.43229e-06, Final residual = 9.41506e-09, No Iterations 4
DILUPBiCGStab:  Solving for dnp7, Initial residual = 1.42982e-06, Final residual = 5.70369e-09, No Iterations 2
DILUPBiCGStab:  Solving for dnp8, Initial residual = 1.43385e-06, Final residual = 2.04266e-09, No Iterations 2
DILUPBiCGStab:  Solving for T, Initial residual = 0.000213557, Final residual = 6.92198e-07, No Iterations 2
ExecutionTime = 109.72 s  ClockTime = 111 s

Courant Number mean: 4.09553 max: 18.9387
Time = 593

DILUPBiCGStab:  Solving for dnp1, Initial residual = 1.23583e-05, Final residual = 4.87599e-09, No Iterations 4
DILUPBiCGStab:  Solving for dnp2, Initial residual = 1.73115e-06, Final residual = 7.23226e-09, No Iterations 7
DILUPBiCGStab:  Solving for dnp3, Initial residual = 1.73008e-06, Final residual = 6.61486e-09, No Iterations 7
DILUPBiCGStab:  Solving for dnp4, Initial residual = 1.63879e-06, Final residual = 5.99747e-09, No Iterations 6
DILUPBiCGStab:  Solving for dnp5, Initial residual = 1.49918e-06, Final residual = 4.48678e-09, No Iterations 2
DILUPBiCGStab:  Solving for dnp6, Initial residual = 1.42806e-06, Final residual = 9.38735e-09, No Iterations 4
DILUPBiCGStab:  Solving for dnp7, Initial residual = 1.42561e-06, Final residual = 5.68667e-09, No Iterations 2
DILUPBiCGStab:  Solving for dnp8, Initial residual = 1.42964e-06, Final residual = 2.03661e-09, No Iterations 2
DILUPBiCGStab:  Solving for T, Initial residual = 0.000212872, Final residual = 6.89879e-07, No Iterations 2
ExecutionTime = 109.92 s  ClockTime = 111 s

Courant Number mean: 4.09553 max: 18.9387
Time = 594

DILUPBiCGStab:  Solving for dnp1, Initial residual = 1.21702e-05, Final residual = 4.80118e-09, No Iterations 4
DILUPBiCGStab:  Solving for dnp2, Initial residual = 1.72587e-06, Final residual = 7.21023e-09, No Iterations 7
DILUPBiCGStab:  Solving for dnp3, Initial residual = 1.7248e-06, Final residual = 6.59459e-09, No Iterations 7
DILUPBiCGStab:  Solving for dnp4, Initial residual = 1.6339e-06, Final residual = 5.97979e-09, No Iterations 6
DILUPBiCGStab:  Solving for dnp5, Initial residual = 1.49474e-06, Final residual = 4.47321e-09, No Iterations 2
DILUPBiCGStab:  Solving for dnp6, Initial residual = 1.42385e-06, Final residual = 9.35975e-09, No Iterations 4
DILUPBiCGStab:  Solving for dnp7, Initial residual = 1.42142e-06, Final residual = 5.66973e-09, No Iterations 2
DILUPBiCGStab:  Solving for dnp8, Initial residual = 1.42544e-06, Final residual = 2.03058e-09, No Iterations 2
DILUPBiCGStab:  Solving for T, Initial residual = 0.000212191, Final residual = 6.8757e-07, No Iterations 2
ExecutionTime = 110.1 s  ClockTime = 111 s

Courant Number mean: 4.09553 max: 18.9387
Time = 595

DILUPBiCGStab:  Solving for dnp1, Initial residual = 1.19848e-05, Final residual = 4.72743e-09, No Iterations 4
DILUPBiCGStab:  Solving for dnp2, Initial residual = 1.72061e-06, Final residual = 7.18827e-09, No Iterations 7
DILUPBiCGStab:  Solving for dnp3, Initial residual = 1.71954e-06, Final residual = 6.57441e-09, No Iterations 7
DILUPBiCGStab:  Solving for dnp4, Initial residual = 1.62903e-06, Final residual = 5.96219e-09, No Iterations 6
DILUPBiCGStab:  Solving for dnp5, Initial residual = 1.49031e-06, Final residual = 4.4597e-09, No Iterations 2
DILUPBiCGStab:  Solving for dnp6, Initial residual = 1.41965e-06, Final residual = 9.33225e-09, No Iterations 4
DILUPBiCGStab:  Solving for dnp7, Initial residual = 1.41724e-06, Final residual = 5.65285e-09, No Iterations 2
DILUPBiCGStab:  Solving for dnp8, Initial residual = 1.42126e-06, Final residual = 2.02457e-09, No Iterations 2
DILUPBiCGStab:  Solving for T, Initial residual = 0.000211512, Final residual = 6.85272e-07, No Iterations 2
ExecutionTime = 110.28 s  ClockTime = 112 s

Courant Number mean: 4.09553 max: 18.9387
Time = 596

DILUPBiCGStab:  Solving for dnp1, Initial residual = 1.1802e-05, Final residual = 4.65473e-09, No Iterations 4
DILUPBiCGStab:  Solving for dnp2, Initial residual = 1.71538e-06, Final residual = 7.1664e-09, No Iterations 7
DILUPBiCGStab:  Solving for dnp3, Initial residual = 1.71431e-06, Final residual = 6.55431e-09, No Iterations 7
DILUPBiCGStab:  Solving for dnp4, Initial residual = 1.62418e-06, Final residual = 5.94465e-09, No Iterations 6
DILUPBiCGStab:  Solving for dnp5, Initial residual = 1.48591e-06, Final residual = 4.44623e-09, No Iterations 2
DILUPBiCGStab:  Solving for dnp6, Initial residual = 1.41548e-06, Final residual = 9.30487e-09, No Iterations 4
DILUPBiCGStab:  Solving for dnp7, Initial residual = 1.41309e-06, Final residual = 5.63604e-09, No Iterations 2
DILUPBiCGStab:  Solving for dnp8, Initial residual = 1.4171e-06, Final residual = 2.01859e-09, No Iterations 2
DILUPBiCGStab:  Solving for T, Initial residual = 0.000210837, Final residual = 6.82985e-07, No Iterations 2
ExecutionTime = 110.45 s  ClockTime = 112 s

Courant Number mean: 4.09553 max: 18.9387
Time = 597

DILUPBiCGStab:  Solving for dnp1, Initial residual = 1.16217e-05, Final residual = 4.58307e-09, No Iterations 4
DILUPBiCGStab:  Solving for dnp2, Initial residual = 1.71016e-06, Final residual = 7.14461e-09, No Iterations 7
DILUPBiCGStab:  Solving for dnp3, Initial residual = 1.70909e-06, Final residual = 6.53429e-09, No Iterations 7
DILUPBiCGStab:  Solving for dnp4, Initial residual = 1.61934e-06, Final residual = 5.92718e-09, No Iterations 6
DILUPBiCGStab:  Solving for dnp5, Initial residual = 1.48152e-06, Final residual = 4.43283e-09, No Iterations 2
DILUPBiCGStab:  Solving for dnp6, Initial residual = 1.41131e-06, Final residual = 9.27761e-09, No Iterations 4
DILUPBiCGStab:  Solving for dnp7, Initial residual = 1.40894e-06, Final residual = 5.6193e-09, No Iterations 2
DILUPBiCGStab:  Solving for dnp8, Initial residual = 1.41296e-06, Final residual = 2.01263e-09, No Iterations 2
DILUPBiCGStab:  Solving for T, Initial residual = 0.000210164, Final residual = 6.80711e-07, No Iterations 2
ExecutionTime = 110.64 s  ClockTime = 112 s

Courant Number mean: 4.09553 max: 18.9387
Time = 598

DILUPBiCGStab:  Solving for dnp1, Initial residual = 1.1444e-05, Final residual = 4.51242e-09, No Iterations 4
DILUPBiCGStab:  Solving for dnp2, Initial residual = 1.70496e-06, Final residual = 7.1229e-09, No Iterations 7
DILUPBiCGStab:  Solving for dnp3, Initial residual = 1.7039e-06, Final residual = 6.51435e-09, No Iterations 7
DILUPBiCGStab:  Solving for dnp4, Initial residual = 1.61453e-06, Final residual = 5.90978e-09, No Iterations 6
DILUPBiCGStab:  Solving for dnp5, Initial residual = 1.47715e-06, Final residual = 4.41947e-09, No Iterations 2
DILUPBiCGStab:  Solving for dnp6, Initial residual = 1.40717e-06, Final residual = 9.25046e-09, No Iterations 4
DILUPBiCGStab:  Solving for dnp7, Initial residual = 1.40482e-06, Final residual = 5.60262e-09, No Iterations 2
DILUPBiCGStab:  Solving for dnp8, Initial residual = 1.40883e-06, Final residual = 2.0067e-09, No Iterations 2
DILUPBiCGStab:  Solving for T, Initial residual = 0.000209495, Final residual = 6.78447e-07, No Iterations 2
ExecutionTime = 110.83 s  ClockTime = 112 s

Courant Number mean: 4.09553 max: 18.9387
Time = 599

DILUPBiCGStab:  Solving for dnp1, Initial residual = 1.12688e-05, Final residual = 4.44278e-09, No Iterations 4
DILUPBiCGStab:  Solving for dnp2, Initial residual = 1.69978e-06, Final residual = 7.10126e-09, No Iterations 7
DILUPBiCGStab:  Solving for dnp3, Initial residual = 1.69873e-06, Final residual = 6.49449e-09, No Iterations 7
DILUPBiCGStab:  Solving for dnp4, Initial residual = 1.60974e-06, Final residual = 5.89245e-09, No Iterations 6
DILUPBiCGStab:  Solving for dnp5, Initial residual = 1.4728e-06, Final residual = 4.40616e-09, No Iterations 2
DILUPBiCGStab:  Solving for dnp6, Initial residual = 1.40304e-06, Final residual = 9.22341e-09, No Iterations 4
DILUPBiCGStab:  Solving for dnp7, Initial residual = 1.40071e-06, Final residual = 5.58601e-09, No Iterations 2
DILUPBiCGStab:  Solving for dnp8, Initial residual = 1.40472e-06, Final residual = 2.00079e-09, No Iterations 2
DILUPBiCGStab:  Solving for T, Initial residual = 0.000208828, Final residual = 6.76193e-07, No Iterations 2
ExecutionTime = 111.01 s  ClockTime = 112 s

Courant Number mean: 4.09553 max: 18.9387
Time = 600

DILUPBiCGStab:  Solving for dnp1, Initial residual = 1.10961e-05, Final residual = 4.37413e-09, No Iterations 4
DILUPBiCGStab:  Solving for dnp2, Initial residual = 1.69463e-06, Final residual = 7.07971e-09, No Iterations 7
DILUPBiCGStab:  Solving for dnp3, Initial residual = 1.69358e-06, Final residual = 6.47472e-09, No Iterations 7
DILUPBiCGStab:  Solving for dnp4, Initial residual = 1.60497e-06, Final residual = 5.8752e-09, No Iterations 6
DILUPBiCGStab:  Solving for dnp5, Initial residual = 1.46846e-06, Final residual = 4.39291e-09, No Iterations 2
DILUPBiCGStab:  Solving for dnp6, Initial residual = 1.39893e-06, Final residual = 9.19648e-09, No Iterations 4
DILUPBiCGStab:  Solving for dnp7, Initial residual = 1.39662e-06, Final residual = 5.56947e-09, No Iterations 2
DILUPBiCGStab:  Solving for dnp8, Initial residual = 1.40062e-06, Final residual = 1.9949e-09, No Iterations 2
DILUPBiCGStab:  Solving for T, Initial residual = 0.000208164, Final residual = 6.7395e-07, No Iterations 2
ExecutionTime = 111.19 s  ClockTime = 113 s

End

